#======================================================================

# CRYSTAL DATA

#----------------------------------------------------------------------

data_VESTA_phase_1


_chemical_name_common                  'methane-low                           '
_cell_length_a                         12.08583
_cell_length_b                         8.45365
_cell_length_c                         8.44839
_cell_angle_alpha                      90
_cell_angle_beta                       90
_cell_angle_gamma                      90
_space_group_name_H-M_alt              'P 1'
_space_group_IT_number                 1

loop_
_space_group_symop_operation_xyz
   'x, y, z'

loop_
   _atom_site_label
   _atom_site_occupancy
   _atom_site_fract_x
   _atom_site_fract_y
   _atom_site_fract_z
   _atom_site_adp_type
   _atom_site_B_iso_or_equiv
   _atom_site_type_symbol
   H1         1.0     0.074061      0.778097      0.260984     Biso  1.000000 H
   H2         1.0     0.925939      0.221903      0.739016     Biso  1.000000 H
   H3         1.0     0.925939      0.721903      0.760984     Biso  1.000000 H
   H4         1.0     0.074061      0.278097      0.239016     Biso  1.000000 H
   H5         1.0     0.925939      0.278097      0.239016     Biso  1.000000 H
   H6         1.0     0.074061      0.721903      0.760984     Biso  1.000000 H
   H7         1.0     0.074061      0.221903      0.739016     Biso  1.000000 H
   H8         1.0     0.925939      0.778097      0.260984     Biso  1.000000 H
   H9         1.0     0.574061      0.278097      0.260984     Biso  1.000000 H
   H10        1.0     0.425939      0.721903      0.739016     Biso  1.000000 H
   H11        1.0     0.425939      0.221903      0.760984     Biso  1.000000 H
   H12        1.0     0.574061      0.778097      0.239016     Biso  1.000000 H
   H13        1.0     0.425939      0.778097      0.239016     Biso  1.000000 H
   H14        1.0     0.574061      0.221903      0.760984     Biso  1.000000 H
   H15        1.0     0.574061      0.721903      0.739016     Biso  1.000000 H
   H16        1.0     0.425939      0.278097      0.260984     Biso  1.000000 H
   H17        1.0     0.802140      0.581261      0.932399     Biso  1.000000 H
   H18        1.0     0.197860      0.418739      0.067601     Biso  1.000000 H
   H19        1.0     0.197860      0.918739      0.432399     Biso  1.000000 H
   H20        1.0     0.802140      0.081261      0.567601     Biso  1.000000 H
   H21        1.0     0.197860      0.081261      0.567601     Biso  1.000000 H
   H22        1.0     0.802140      0.918739      0.432399     Biso  1.000000 H
   H23        1.0     0.802140      0.418739      0.067601     Biso  1.000000 H
   H24        1.0     0.197860      0.581261      0.932399     Biso  1.000000 H
   H25        1.0     0.302140      0.081261      0.932399     Biso  1.000000 H
   H26        1.0     0.697860      0.918739      0.067601     Biso  1.000000 H
   H27        1.0     0.697860      0.418739      0.432399     Biso  1.000000 H
   H28        1.0     0.302140      0.581261      0.567601     Biso  1.000000 H
   H29        1.0     0.697860      0.581261      0.567601     Biso  1.000000 H
   H30        1.0     0.302140      0.418739      0.432399     Biso  1.000000 H
   H31        1.0     0.302140      0.918739      0.067601     Biso  1.000000 H
   H32        1.0     0.697860      0.081261      0.932399     Biso  1.000000 H
   H33        1.0     0.697389      0.567690      0.081455     Biso  1.000000 H
   H34        1.0     0.302611      0.432310      0.918545     Biso  1.000000 H
   H35        1.0     0.302611      0.932310      0.581455     Biso  1.000000 H
   H36        1.0     0.697389      0.067690      0.418545     Biso  1.000000 H
   H37        1.0     0.302611      0.067690      0.418545     Biso  1.000000 H
   H38        1.0     0.697389      0.932310      0.581455     Biso  1.000000 H
   H39        1.0     0.697389      0.432310      0.918545     Biso  1.000000 H
   H40        1.0     0.302611      0.567690      0.081455     Biso  1.000000 H
   H41        1.0     0.197389      0.067690      0.081455     Biso  1.000000 H
   H42        1.0     0.802611      0.932310      0.918545     Biso  1.000000 H
   H43        1.0     0.802611      0.432310      0.581455     Biso  1.000000 H
   H44        1.0     0.197389      0.567690      0.418545     Biso  1.000000 H
   H45        1.0     0.802611      0.567690      0.418545     Biso  1.000000 H
   H46        1.0     0.197389      0.432310      0.581455     Biso  1.000000 H
   H47        1.0     0.197389      0.932310      0.918545     Biso  1.000000 H
   H48        1.0     0.802611      0.067690      0.081455     Biso  1.000000 H
   H49        1.0     0.000000      0.603011      0.206535     Biso  1.000000 H
   H50        1.0     0.000000      0.396989      0.793465     Biso  1.000000 H
   H51        1.0     0.000000      0.896989      0.706535     Biso  1.000000 H
   H52        1.0     0.000000      0.103011      0.293465     Biso  1.000000 H
   H53        1.0     0.500000      0.103011      0.206535     Biso  1.000000 H
   H54        1.0     0.500000      0.896989      0.793465     Biso  1.000000 H
   H55        1.0     0.500000      0.396989      0.706535     Biso  1.000000 H
   H56        1.0     0.500000      0.603011      0.293465     Biso  1.000000 H
   H57        1.0     0.000000      0.228544      0.922105     Biso  1.000000 H
   H58        1.0     0.000000      0.771456      0.077895     Biso  1.000000 H
   H59        1.0     0.000000      0.271456      0.422105     Biso  1.000000 H
   H60        1.0     0.000000      0.728544      0.577895     Biso  1.000000 H
   H61        1.0     0.500000      0.728544      0.922105     Biso  1.000000 H
   H62        1.0     0.500000      0.271456      0.077895     Biso  1.000000 H
   H63        1.0     0.500000      0.771456      0.422105     Biso  1.000000 H
   H64        1.0     0.500000      0.228544      0.577895     Biso  1.000000 H
   C1         1.0     0.000000      0.232542      0.298459     Biso  1.000000 C
   C2         1.0     0.000000      0.767458      0.701541     Biso  1.000000 C
   C3         1.0     0.000000      0.267458      0.798459     Biso  1.000000 C
   C4         1.0     0.000000      0.732542      0.201541     Biso  1.000000 C
   C5         1.0     0.500000      0.732542      0.298459     Biso  1.000000 C
   C6         1.0     0.500000      0.267458      0.701541     Biso  1.000000 C
   C7         1.0     0.500000      0.767458      0.798459     Biso  1.000000 C
   C8         1.0     0.500000      0.232542      0.201541     Biso  1.000000 C
   C9         1.0     0.749672      0.500000     -0.000000     Biso  1.000000 C
   C10        1.0     0.250328      0.500000     -0.000000     Biso  1.000000 C
   C11        1.0     0.250328      0.000000      0.500000     Biso  1.000000 C
   C12        1.0     0.749672      0.000000      0.500000     Biso  1.000000 C
   C13        1.0     0.249672      0.000000     -0.000000     Biso  1.000000 C
   C14        1.0     0.750328      0.000000     -0.000000     Biso  1.000000 C
   C15        1.0     0.750328      0.500000      0.500000     Biso  1.000000 C
   C16        1.0     0.249672      0.500000      0.500000     Biso  1.000000 C
