#======================================================================

# CRYSTAL DATA

#----------------------------------------------------------------------

data_VESTA_phase_1


_chemical_name_common                  'methane-low                           '
_cell_length_a                         12.01214
_cell_length_b                         8.40210
_cell_length_c                         8.39687
_cell_angle_alpha                      90
_cell_angle_beta                       90
_cell_angle_gamma                      90
_space_group_name_H-M_alt              'P 1'
_space_group_IT_number                 1

loop_
_space_group_symop_operation_xyz
   'x, y, z'

loop_
   _atom_site_label
   _atom_site_occupancy
   _atom_site_fract_x
   _atom_site_fract_y
   _atom_site_fract_z
   _atom_site_adp_type
   _atom_site_B_iso_or_equiv
   _atom_site_type_symbol
   H1         1.0     0.074505      0.778377      0.261308     Biso  1.000000 H
   H2         1.0     0.925495      0.221623      0.738693     Biso  1.000000 H
   H3         1.0     0.925495      0.721623      0.761307     Biso  1.000000 H
   H4         1.0     0.074505      0.278377      0.238692     Biso  1.000000 H
   H5         1.0     0.925495      0.278377      0.238692     Biso  1.000000 H
   H6         1.0     0.074505      0.721623      0.761307     Biso  1.000000 H
   H7         1.0     0.074505      0.221623      0.738693     Biso  1.000000 H
   H8         1.0     0.925495      0.778377      0.261308     Biso  1.000000 H
   H9         1.0     0.574505      0.278377      0.261308     Biso  1.000000 H
   H10        1.0     0.425495      0.721623      0.738693     Biso  1.000000 H
   H11        1.0     0.425495      0.221623      0.761307     Biso  1.000000 H
   H12        1.0     0.574505      0.778377      0.238692     Biso  1.000000 H
   H13        1.0     0.425495      0.778377      0.238692     Biso  1.000000 H
   H14        1.0     0.574505      0.221623      0.761307     Biso  1.000000 H
   H15        1.0     0.574505      0.721623      0.738693     Biso  1.000000 H
   H16        1.0     0.425495      0.278377      0.261308     Biso  1.000000 H
   H17        1.0     0.802447      0.581764      0.931994     Biso  1.000000 H
   H18        1.0     0.197553      0.418236      0.068006     Biso  1.000000 H
   H19        1.0     0.197553      0.918236      0.431994     Biso  1.000000 H
   H20        1.0     0.802447      0.081764      0.568006     Biso  1.000000 H
   H21        1.0     0.197553      0.081764      0.568006     Biso  1.000000 H
   H22        1.0     0.802447      0.918236      0.431994     Biso  1.000000 H
   H23        1.0     0.802447      0.418236      0.068006     Biso  1.000000 H
   H24        1.0     0.197553      0.581764      0.931994     Biso  1.000000 H
   H25        1.0     0.302447      0.081764      0.931994     Biso  1.000000 H
   H26        1.0     0.697553      0.918236      0.068006     Biso  1.000000 H
   H27        1.0     0.697553      0.418236      0.431994     Biso  1.000000 H
   H28        1.0     0.302447      0.581764      0.568006     Biso  1.000000 H
   H29        1.0     0.697553      0.581764      0.568006     Biso  1.000000 H
   H30        1.0     0.302447      0.418236      0.431994     Biso  1.000000 H
   H31        1.0     0.302447      0.918236      0.068006     Biso  1.000000 H
   H32        1.0     0.697553      0.081764      0.931994     Biso  1.000000 H
   H33        1.0     0.697067      0.568094      0.081955     Biso  1.000000 H
   H34        1.0     0.302933      0.431906      0.918045     Biso  1.000000 H
   H35        1.0     0.302933      0.931906      0.581955     Biso  1.000000 H
   H36        1.0     0.697067      0.068094      0.418045     Biso  1.000000 H
   H37        1.0     0.302933      0.068094      0.418045     Biso  1.000000 H
   H38        1.0     0.697067      0.931906      0.581955     Biso  1.000000 H
   H39        1.0     0.697067      0.431906      0.918045     Biso  1.000000 H
   H40        1.0     0.302933      0.568094      0.081955     Biso  1.000000 H
   H41        1.0     0.197067      0.068094      0.081955     Biso  1.000000 H
   H42        1.0     0.802933      0.931906      0.918045     Biso  1.000000 H
   H43        1.0     0.802933      0.431906      0.581955     Biso  1.000000 H
   H44        1.0     0.197067      0.568094      0.418045     Biso  1.000000 H
   H45        1.0     0.802933      0.568094      0.418045     Biso  1.000000 H
   H46        1.0     0.197067      0.431906      0.581955     Biso  1.000000 H
   H47        1.0     0.197067      0.931906      0.918045     Biso  1.000000 H
   H48        1.0     0.802933      0.068094      0.081955     Biso  1.000000 H
   H49        1.0    -0.000000      0.602227      0.206538     Biso  1.000000 H
   H50        1.0    -0.000000      0.397773      0.793462     Biso  1.000000 H
   H51        1.0    -0.000000      0.897773      0.706538     Biso  1.000000 H
   H52        1.0    -0.000000      0.102227      0.293462     Biso  1.000000 H
   H53        1.0     0.500000      0.102227      0.206538     Biso  1.000000 H
   H54        1.0     0.500000      0.897773      0.793462     Biso  1.000000 H
   H55        1.0     0.500000      0.397773      0.706538     Biso  1.000000 H
   H56        1.0     0.500000      0.602227      0.293462     Biso  1.000000 H
   H57        1.0    -0.000000      0.228317      0.922884     Biso  1.000000 H
   H58        1.0    -0.000000      0.771683      0.077116     Biso  1.000000 H
   H59        1.0    -0.000000      0.271683      0.422884     Biso  1.000000 H
   H60        1.0    -0.000000      0.728317      0.577116     Biso  1.000000 H
   H61        1.0     0.500000      0.728317      0.922884     Biso  1.000000 H
   H62        1.0     0.500000      0.271683      0.077116     Biso  1.000000 H
   H63        1.0     0.500000      0.771683      0.422884     Biso  1.000000 H
   H64        1.0     0.500000      0.228317      0.577116     Biso  1.000000 H
   C1         1.0    -0.000000      0.232529      0.298409     Biso  1.000000 C
   C2         1.0    -0.000000      0.767471      0.701591     Biso  1.000000 C
   C3         1.0    -0.000000      0.267471      0.798409     Biso  1.000000 C
   C4         1.0    -0.000000      0.732529      0.201591     Biso  1.000000 C
   C5         1.0     0.500000      0.732529      0.298409     Biso  1.000000 C
   C6         1.0     0.500000      0.267471      0.701591     Biso  1.000000 C
   C7         1.0     0.500000      0.767471      0.798409     Biso  1.000000 C
   C8         1.0     0.500000      0.232529      0.201591     Biso  1.000000 C
   C9         1.0     0.749664      0.500000     -0.000000     Biso  1.000000 C
   C10        1.0     0.250336      0.500000     -0.000000     Biso  1.000000 C
   C11        1.0     0.250336     -0.000000      0.500000     Biso  1.000000 C
   C12        1.0     0.749664     -0.000000      0.500000     Biso  1.000000 C
   C13        1.0     0.249664     -0.000000     -0.000000     Biso  1.000000 C
   C14        1.0     0.750336     -0.000000     -0.000000     Biso  1.000000 C
   C15        1.0     0.750336      0.500000      0.500000     Biso  1.000000 C
   C16        1.0     0.249664      0.500000      0.500000     Biso  1.000000 C
