#======================================================================

# CRYSTAL DATA

#----------------------------------------------------------------------

data_VESTA_phase_1


_chemical_name_common                  'methane-low                           '
_cell_length_a                         11.93752
_cell_length_b                         8.34991
_cell_length_c                         8.34472
_cell_angle_alpha                      90
_cell_angle_beta                       90
_cell_angle_gamma                      90
_space_group_name_H-M_alt              'P 1'
_space_group_IT_number                 1

loop_
_space_group_symop_operation_xyz
   'x, y, z'

loop_
   _atom_site_label
   _atom_site_occupancy
   _atom_site_fract_x
   _atom_site_fract_y
   _atom_site_fract_z
   _atom_site_adp_type
   _atom_site_B_iso_or_equiv
   _atom_site_type_symbol
   H1         1.0     0.074997      0.778761      0.260773     Biso  1.000000 H
   H2         1.0     0.925003      0.221239      0.739227     Biso  1.000000 H
   H3         1.0     0.925003      0.721239      0.760773     Biso  1.000000 H
   H4         1.0     0.074997      0.278761      0.239227     Biso  1.000000 H
   H5         1.0     0.925003      0.278761      0.239227     Biso  1.000000 H
   H6         1.0     0.074997      0.721239      0.760773     Biso  1.000000 H
   H7         1.0     0.074997      0.221239      0.739227     Biso  1.000000 H
   H8         1.0     0.925003      0.778761      0.260773     Biso  1.000000 H
   H9         1.0     0.574997      0.278761      0.260773     Biso  1.000000 H
   H10        1.0     0.425003      0.721239      0.739227     Biso  1.000000 H
   H11        1.0     0.425003      0.221239      0.760773     Biso  1.000000 H
   H12        1.0     0.574997      0.778761      0.239227     Biso  1.000000 H
   H13        1.0     0.425003      0.778761      0.239227     Biso  1.000000 H
   H14        1.0     0.574997      0.221239      0.760773     Biso  1.000000 H
   H15        1.0     0.574997      0.721239      0.739227     Biso  1.000000 H
   H16        1.0     0.425003      0.278761      0.260773     Biso  1.000000 H
   H17        1.0     0.802406      0.582644      0.932000     Biso  1.000000 H
   H18        1.0     0.197594      0.417356      0.068000     Biso  1.000000 H
   H19        1.0     0.197594      0.917356      0.432000     Biso  1.000000 H
   H20        1.0     0.802406      0.082644      0.568000     Biso  1.000000 H
   H21        1.0     0.197594      0.082644      0.568000     Biso  1.000000 H
   H22        1.0     0.802406      0.917356      0.432000     Biso  1.000000 H
   H23        1.0     0.802406      0.417356      0.068000     Biso  1.000000 H
   H24        1.0     0.197594      0.582644      0.932000     Biso  1.000000 H
   H25        1.0     0.302406      0.082644      0.932000     Biso  1.000000 H
   H26        1.0     0.697594      0.917356      0.068000     Biso  1.000000 H
   H27        1.0     0.697594      0.417356      0.432000     Biso  1.000000 H
   H28        1.0     0.302406      0.582644      0.568000     Biso  1.000000 H
   H29        1.0     0.697594      0.582644      0.568000     Biso  1.000000 H
   H30        1.0     0.302406      0.417356      0.432000     Biso  1.000000 H
   H31        1.0     0.302406      0.917356      0.068000     Biso  1.000000 H
   H32        1.0     0.697594      0.082644      0.932000     Biso  1.000000 H
   H33        1.0     0.696399      0.568091      0.082821     Biso  1.000000 H
   H34        1.0     0.303601      0.431909      0.917179     Biso  1.000000 H
   H35        1.0     0.303601      0.931909      0.582821     Biso  1.000000 H
   H36        1.0     0.696399      0.068091      0.417179     Biso  1.000000 H
   H37        1.0     0.303601      0.068091      0.417179     Biso  1.000000 H
   H38        1.0     0.696399      0.931909      0.582821     Biso  1.000000 H
   H39        1.0     0.696399      0.431909      0.917179     Biso  1.000000 H
   H40        1.0     0.303601      0.568091      0.082821     Biso  1.000000 H
   H41        1.0     0.196399      0.068091      0.082821     Biso  1.000000 H
   H42        1.0     0.803601      0.931909      0.917179     Biso  1.000000 H
   H43        1.0     0.803601      0.431909      0.582821     Biso  1.000000 H
   H44        1.0     0.196399      0.568091      0.417179     Biso  1.000000 H
   H45        1.0     0.803601      0.568091      0.417179     Biso  1.000000 H
   H46        1.0     0.196399      0.431909      0.582821     Biso  1.000000 H
   H47        1.0     0.196399      0.931909      0.917179     Biso  1.000000 H
   H48        1.0     0.803601      0.068091      0.082821     Biso  1.000000 H
   H49        1.0    -0.000000      0.601318      0.206065     Biso  1.000000 H
   H50        1.0    -0.000000      0.398682      0.793935     Biso  1.000000 H
   H51        1.0    -0.000000      0.898682      0.706065     Biso  1.000000 H
   H52        1.0    -0.000000      0.101318      0.293935     Biso  1.000000 H
   H53        1.0     0.500000      0.101318      0.206065     Biso  1.000000 H
   H54        1.0     0.500000      0.898682      0.793935     Biso  1.000000 H
   H55        1.0     0.500000      0.398682      0.706065     Biso  1.000000 H
   H56        1.0     0.500000      0.601318      0.293935     Biso  1.000000 H
   H57        1.0    -0.000000      0.228495      0.924437     Biso  1.000000 H
   H58        1.0    -0.000000      0.771505      0.075563     Biso  1.000000 H
   H59        1.0    -0.000000      0.271505      0.424437     Biso  1.000000 H
   H60        1.0    -0.000000      0.728495      0.575563     Biso  1.000000 H
   H61        1.0     0.500000      0.728495      0.924437     Biso  1.000000 H
   H62        1.0     0.500000      0.271505      0.075563     Biso  1.000000 H
   H63        1.0     0.500000      0.771505      0.424437     Biso  1.000000 H
   H64        1.0     0.500000      0.228495      0.575563     Biso  1.000000 H
   C1         1.0    -0.000000      0.232420      0.299155     Biso  1.000000 C
   C2         1.0    -0.000000      0.767580      0.700845     Biso  1.000000 C
   C3         1.0    -0.000000      0.267580      0.799155     Biso  1.000000 C
   C4         1.0    -0.000000      0.732420      0.200845     Biso  1.000000 C
   C5         1.0     0.500000      0.732420      0.299155     Biso  1.000000 C
   C6         1.0     0.500000      0.267580      0.700845     Biso  1.000000 C
   C7         1.0     0.500000      0.767580      0.799155     Biso  1.000000 C
   C8         1.0     0.500000      0.232420      0.200845     Biso  1.000000 C
   C9         1.0     0.749316      0.500000      0.000000     Biso  1.000000 C
   C10        1.0     0.250684      0.500000      0.000000     Biso  1.000000 C
   C11        1.0     0.250684      0.000000      0.500000     Biso  1.000000 C
   C12        1.0     0.749316      0.000000      0.500000     Biso  1.000000 C
   C13        1.0     0.249316      0.000000      0.000000     Biso  1.000000 C
   C14        1.0     0.750684      0.000000      0.000000     Biso  1.000000 C
   C15        1.0     0.750684      0.500000      0.500000     Biso  1.000000 C
   C16        1.0     0.249316      0.500000      0.500000     Biso  1.000000 C
