#======================================================================

# CRYSTAL DATA

#----------------------------------------------------------------------

data_VESTA_phase_1


_chemical_name_common                  'methane-low                           '
_cell_length_a                         11.86197
_cell_length_b                         8.29707
_cell_length_c                         8.29190
_cell_angle_alpha                      90
_cell_angle_beta                       90
_cell_angle_gamma                      90
_space_group_name_H-M_alt              'P 1'
_space_group_IT_number                 1

loop_
_space_group_symop_operation_xyz
   'x, y, z'

loop_
   _atom_site_label
   _atom_site_occupancy
   _atom_site_fract_x
   _atom_site_fract_y
   _atom_site_fract_z
   _atom_site_adp_type
   _atom_site_B_iso_or_equiv
   _atom_site_type_symbol
   H1         1.0     0.075594      0.817089      0.167511     Biso  1.000000 H
   H2         1.0     0.924406      0.182911      0.832489     Biso  1.000000 H
   H3         1.0     0.924406      0.682911      0.667511     Biso  1.000000 H
   H4         1.0     0.075594      0.317089      0.332489     Biso  1.000000 H
   H5         1.0     0.924406      0.317089      0.332489     Biso  1.000000 H
   H6         1.0     0.075594      0.682911      0.667511     Biso  1.000000 H
   H7         1.0     0.075594      0.182911      0.832489     Biso  1.000000 H
   H8         1.0     0.924406      0.817089      0.167511     Biso  1.000000 H
   H9         1.0     0.575594      0.317089      0.167511     Biso  1.000000 H
   H10        1.0     0.424406      0.682911      0.832489     Biso  1.000000 H
   H11        1.0     0.424406      0.182911      0.667511     Biso  1.000000 H
   H12        1.0     0.575594      0.817089      0.332489     Biso  1.000000 H
   H13        1.0     0.424406      0.817089      0.332489     Biso  1.000000 H
   H14        1.0     0.575594      0.182911      0.667511     Biso  1.000000 H
   H15        1.0     0.575594      0.682911      0.832489     Biso  1.000000 H
   H16        1.0     0.424406      0.317089      0.167511     Biso  1.000000 H
   H17        1.0     0.814687      0.584352      0.933002     Biso  1.000000 H
   H18        1.0     0.185313      0.415648      0.066998     Biso  1.000000 H
   H19        1.0     0.185313      0.915648      0.433002     Biso  1.000000 H
   H20        1.0     0.814687      0.084352      0.566998     Biso  1.000000 H
   H21        1.0     0.185313      0.084352      0.566998     Biso  1.000000 H
   H22        1.0     0.814687      0.915648      0.433002     Biso  1.000000 H
   H23        1.0     0.814687      0.415648      0.066998     Biso  1.000000 H
   H24        1.0     0.185313      0.584352      0.933002     Biso  1.000000 H
   H25        1.0     0.314687      0.084352      0.933002     Biso  1.000000 H
   H26        1.0     0.685313      0.915648      0.066998     Biso  1.000000 H
   H27        1.0     0.685313      0.415648      0.433002     Biso  1.000000 H
   H28        1.0     0.314687      0.584352      0.566998     Biso  1.000000 H
   H29        1.0     0.685313      0.584352      0.566998     Biso  1.000000 H
   H30        1.0     0.314687      0.415648      0.433002     Biso  1.000000 H
   H31        1.0     0.314687      0.915648      0.066998     Biso  1.000000 H
   H32        1.0     0.685313      0.084352      0.933002     Biso  1.000000 H
   H33        1.0     0.707975      0.567314      0.084278     Biso  1.000000 H
   H34        1.0     0.292025      0.432686      0.915722     Biso  1.000000 H
   H35        1.0     0.292025      0.932686      0.584278     Biso  1.000000 H
   H36        1.0     0.707975      0.067314      0.415722     Biso  1.000000 H
   H37        1.0     0.292025      0.067314      0.415722     Biso  1.000000 H
   H38        1.0     0.707975      0.932686      0.584278     Biso  1.000000 H
   H39        1.0     0.707975      0.432686      0.915722     Biso  1.000000 H
   H40        1.0     0.292025      0.567314      0.084278     Biso  1.000000 H
   H41        1.0     0.207975      0.067314      0.084278     Biso  1.000000 H
   H42        1.0     0.792025      0.932686      0.915722     Biso  1.000000 H
   H43        1.0     0.792025      0.432686      0.584278     Biso  1.000000 H
   H44        1.0     0.207975      0.567314      0.415722     Biso  1.000000 H
   H45        1.0     0.792025      0.567314      0.415722     Biso  1.000000 H
   H46        1.0     0.207975      0.432686      0.584278     Biso  1.000000 H
   H47        1.0     0.207975      0.932686      0.915722     Biso  1.000000 H
   H48        1.0     0.792025      0.067314      0.084278     Biso  1.000000 H
   H49        1.0     0.000000      0.631069      0.149533     Biso  1.000000 H
   H50        1.0     0.000000      0.368931      0.850467     Biso  1.000000 H
   H51        1.0     0.000000      0.868931      0.649533     Biso  1.000000 H
   H52        1.0     0.000000      0.131069      0.350467     Biso  1.000000 H
   H53        1.0     0.500000      0.131069      0.149533     Biso  1.000000 H
   H54        1.0     0.500000      0.868931      0.850467     Biso  1.000000 H
   H55        1.0     0.500000      0.368931      0.649533     Biso  1.000000 H
   H56        1.0     0.500000      0.631069      0.350467     Biso  1.000000 H
   H57        1.0     0.000000      0.272398      0.513260     Biso  1.000000 H
   H58        1.0     0.000000      0.727602      0.486740     Biso  1.000000 H
   H59        1.0     0.000000      0.227602      0.013260     Biso  1.000000 H
   H60        1.0     0.000000      0.772398      0.986740     Biso  1.000000 H
   H61        1.0     0.500000      0.772398      0.513260     Biso  1.000000 H
   H62        1.0     0.500000      0.227602      0.486740     Biso  1.000000 H
   H63        1.0     0.500000      0.727602      0.013260     Biso  1.000000 H
   H64        1.0     0.500000      0.272398      0.986740     Biso  1.000000 H
   C1         1.0     0.000000      0.259406      0.381731     Biso  1.000000 C
   C2         1.0     0.000000      0.740594      0.618269     Biso  1.000000 C
   C3         1.0     0.000000      0.240594      0.881731     Biso  1.000000 C
   C4         1.0     0.000000      0.759406      0.118269     Biso  1.000000 C
   C5         1.0     0.500000      0.759406      0.381731     Biso  1.000000 C
   C6         1.0     0.500000      0.240594      0.618269     Biso  1.000000 C
   C7         1.0     0.500000      0.740594      0.881731     Biso  1.000000 C
   C8         1.0     0.500000      0.259406      0.118269     Biso  1.000000 C
   C9         1.0     0.761281      0.500000      0.000000     Biso  1.000000 C
   C10        1.0     0.238719      0.500000      0.000000     Biso  1.000000 C
   C11        1.0     0.238719     -0.000000      0.500000     Biso  1.000000 C
   C12        1.0     0.761281     -0.000000      0.500000     Biso  1.000000 C
   C13        1.0     0.261281     -0.000000      0.000000     Biso  1.000000 C
   C14        1.0     0.738719     -0.000000      0.000000     Biso  1.000000 C
   C15        1.0     0.738719      0.500000      0.500000     Biso  1.000000 C
   C16        1.0     0.261281      0.500000      0.500000     Biso  1.000000 C
