#======================================================================

# CRYSTAL DATA

#----------------------------------------------------------------------

data_VESTA_phase_1


_chemical_name_common                  'methane-low                           '
_cell_length_a                         11.78544
_cell_length_b                         8.24354
_cell_length_c                         8.23840
_cell_angle_alpha                      90
_cell_angle_beta                       90
_cell_angle_gamma                      90
_space_group_name_H-M_alt              'P 1'
_space_group_IT_number                 1

loop_
_space_group_symop_operation_xyz
   'x, y, z'

loop_
   _atom_site_label
   _atom_site_occupancy
   _atom_site_fract_x
   _atom_site_fract_y
   _atom_site_fract_z
   _atom_site_adp_type
   _atom_site_B_iso_or_equiv
   _atom_site_type_symbol
   H1         1.0     0.075624      0.827381      0.156286     Biso  1.000000 H
   H2         1.0     0.924376      0.172619      0.843714     Biso  1.000000 H
   H3         1.0     0.924376      0.672619      0.656286     Biso  1.000000 H
   H4         1.0     0.075624      0.327381      0.343714     Biso  1.000000 H
   H5         1.0     0.924376      0.327381      0.343714     Biso  1.000000 H
   H6         1.0     0.075624      0.672619      0.656286     Biso  1.000000 H
   H7         1.0     0.075624      0.172619      0.843714     Biso  1.000000 H
   H8         1.0     0.924376      0.827381      0.156286     Biso  1.000000 H
   H9         1.0     0.575624      0.327381      0.156286     Biso  1.000000 H
   H10        1.0     0.424376      0.672619      0.843714     Biso  1.000000 H
   H11        1.0     0.424376      0.172619      0.656286     Biso  1.000000 H
   H12        1.0     0.575624      0.827381      0.343714     Biso  1.000000 H
   H13        1.0     0.424376      0.827381      0.343714     Biso  1.000000 H
   H14        1.0     0.575624      0.172619      0.656286     Biso  1.000000 H
   H15        1.0     0.575624      0.672619      0.843714     Biso  1.000000 H
   H16        1.0     0.424376      0.327381      0.156286     Biso  1.000000 H
   H17        1.0     0.806120      0.584166      0.931133     Biso  1.000000 H
   H18        1.0     0.193880      0.415834      0.068867     Biso  1.000000 H
   H19        1.0     0.193880      0.915834      0.431133     Biso  1.000000 H
   H20        1.0     0.806120      0.084166      0.568867     Biso  1.000000 H
   H21        1.0     0.193880      0.084166      0.568867     Biso  1.000000 H
   H22        1.0     0.806120      0.915834      0.431133     Biso  1.000000 H
   H23        1.0     0.806120      0.415834      0.068867     Biso  1.000000 H
   H24        1.0     0.193880      0.584166      0.931133     Biso  1.000000 H
   H25        1.0     0.306120      0.084166      0.931133     Biso  1.000000 H
   H26        1.0     0.693880      0.915834      0.068867     Biso  1.000000 H
   H27        1.0     0.693880      0.415834      0.431133     Biso  1.000000 H
   H28        1.0     0.306120      0.584166      0.568867     Biso  1.000000 H
   H29        1.0     0.693880      0.584166      0.568867     Biso  1.000000 H
   H30        1.0     0.306120      0.415834      0.431133     Biso  1.000000 H
   H31        1.0     0.306120      0.915834      0.068867     Biso  1.000000 H
   H32        1.0     0.693880      0.084166      0.931133     Biso  1.000000 H
   H33        1.0     0.698737      0.569113      0.083652     Biso  1.000000 H
   H34        1.0     0.301263      0.430887      0.916348     Biso  1.000000 H
   H35        1.0     0.301263      0.930887      0.583652     Biso  1.000000 H
   H36        1.0     0.698737      0.069113      0.416348     Biso  1.000000 H
   H37        1.0     0.301263      0.069113      0.416348     Biso  1.000000 H
   H38        1.0     0.698737      0.930887      0.583652     Biso  1.000000 H
   H39        1.0     0.698737      0.430887      0.916348     Biso  1.000000 H
   H40        1.0     0.301263      0.569113      0.083652     Biso  1.000000 H
   H41        1.0     0.198737      0.069113      0.083652     Biso  1.000000 H
   H42        1.0     0.801263      0.930887      0.916348     Biso  1.000000 H
   H43        1.0     0.801263      0.430887      0.583652     Biso  1.000000 H
   H44        1.0     0.198737      0.569113      0.416348     Biso  1.000000 H
   H45        1.0     0.801263      0.569113      0.416348     Biso  1.000000 H
   H46        1.0     0.198737      0.430887      0.583652     Biso  1.000000 H
   H47        1.0     0.198737      0.930887      0.916348     Biso  1.000000 H
   H48        1.0     0.801263      0.069113      0.083652     Biso  1.000000 H
   H49        1.0    -0.000000      0.639634      0.138228     Biso  1.000000 H
   H50        1.0    -0.000000      0.360366      0.861772     Biso  1.000000 H
   H51        1.0    -0.000000      0.860366      0.638228     Biso  1.000000 H
   H52        1.0    -0.000000      0.139634      0.361772     Biso  1.000000 H
   H53        1.0     0.500000      0.139634      0.138228     Biso  1.000000 H
   H54        1.0     0.500000      0.860366      0.861772     Biso  1.000000 H
   H55        1.0     0.500000      0.360366      0.638228     Biso  1.000000 H
   H56        1.0     0.500000      0.639634      0.361772     Biso  1.000000 H
   H57        1.0    -0.000000      0.281285      0.525578     Biso  1.000000 H
   H58        1.0    -0.000000      0.718715      0.474422     Biso  1.000000 H
   H59        1.0    -0.000000      0.218715      0.025578     Biso  1.000000 H
   H60        1.0    -0.000000      0.781285      0.974422     Biso  1.000000 H
   H61        1.0     0.500000      0.781285      0.525578     Biso  1.000000 H
   H62        1.0     0.500000      0.218715      0.474422     Biso  1.000000 H
   H63        1.0     0.500000      0.718715      0.025578     Biso  1.000000 H
   H64        1.0     0.500000      0.281285      0.974422     Biso  1.000000 H
   C1         1.0    -0.000000      0.268489      0.392375     Biso  1.000000 C
   C2         1.0    -0.000000      0.731511      0.607625     Biso  1.000000 C
   C3         1.0    -0.000000      0.231511      0.892375     Biso  1.000000 C
   C4         1.0    -0.000000      0.768489      0.107625     Biso  1.000000 C
   C5         1.0     0.500000      0.768489      0.392375     Biso  1.000000 C
   C6         1.0     0.500000      0.231511      0.607625     Biso  1.000000 C
   C7         1.0     0.500000      0.731511      0.892375     Biso  1.000000 C
   C8         1.0     0.500000      0.268489      0.107625     Biso  1.000000 C
   C9         1.0     0.752387      0.500000      0.000000     Biso  1.000000 C
   C10        1.0     0.247613      0.500000      0.000000     Biso  1.000000 C
   C11        1.0     0.247613     -0.000000      0.500000     Biso  1.000000 C
   C12        1.0     0.752387     -0.000000      0.500000     Biso  1.000000 C
   C13        1.0     0.252387     -0.000000      0.000000     Biso  1.000000 C
   C14        1.0     0.747613     -0.000000      0.000000     Biso  1.000000 C
   C15        1.0     0.747613      0.500000      0.500000     Biso  1.000000 C
   C16        1.0     0.252387      0.500000      0.500000     Biso  1.000000 C
