#======================================================================

# CRYSTAL DATA

#----------------------------------------------------------------------

data_VESTA_phase_1


_chemical_name_common                  'benzene                               '
_cell_length_a                         20.00000
_cell_length_b                         20.00000
_cell_length_c                         20.00000
_cell_angle_alpha                      90
_cell_angle_beta                       90
_cell_angle_gamma                      90
_space_group_name_H-M_alt              'P 1'
_space_group_IT_number                 1

loop_
_space_group_symop_operation_xyz
   'x, y, z'

loop_
   _atom_site_label
   _atom_site_occupancy
   _atom_site_fract_x
   _atom_site_fract_y
   _atom_site_fract_z
   _atom_site_adp_type
   _atom_site_B_iso_or_equiv
   _atom_site_type_symbol
   C1         1.0     0.204283      0.301145      0.166557     Biso  1.000000 C
   C2         1.0     0.163467      0.167405      0.168443     Biso  1.000000 C
   C3         1.0     0.155024      0.279016      0.122209     Biso  1.000000 C
   C4         1.0     0.212726      0.189534      0.212791     Biso  1.000000 C
   C5         1.0     0.233138      0.256367      0.211821     Biso  1.000000 C
   C6         1.0     0.134612      0.212183      0.123179     Biso  1.000000 C
   H1         1.0     0.220060      0.353399      0.165869     Biso  1.000000 H
   H2         1.0     0.147690      0.115151      0.169131     Biso  1.000000 H
   H3         1.0     0.132499      0.313838      0.086786     Biso  1.000000 H
   H4         1.0     0.235251      0.154712      0.248214     Biso  1.000000 H
   H5         1.0     0.271680      0.273564      0.246376     Biso  1.000000 H
   H6         1.0     0.096070      0.194986      0.088624     Biso  1.000000 H
