#======================================================================

# CRYSTAL DATA

#----------------------------------------------------------------------

data_VESTA_phase_1


_chemical_name_common                  'C6 H6                                 '
_cell_length_a                         7.35500
_cell_length_b                         9.37100
_cell_length_c                         6.70000
_cell_angle_alpha                      90
_cell_angle_beta                       90
_cell_angle_gamma                      90
_space_group_name_H-M_alt              'P 1'
_space_group_IT_number                 1

loop_
_space_group_symop_operation_xyz
   'x, y, z'

loop_
   _atom_site_label
   _atom_site_occupancy
   _atom_site_fract_x
   _atom_site_fract_y
   _atom_site_fract_z
   _atom_site_adp_type
   _atom_site_B_iso_or_equiv
   _atom_site_type_symbol
   C1         1.0     0.944719      0.142740      0.002564     Biso  1.000000 C
   C2         1.0     0.055281      0.857260     -0.002564     Biso  1.000000 C
   C3         1.0     0.555281      0.857260      0.502564     Biso  1.000000 C
   C4         1.0     0.444719      0.142740      0.497436     Biso  1.000000 C
   C5         1.0     0.055281      0.642740      0.497436     Biso  1.000000 C
   C6         1.0     0.944719      0.357260      0.502564     Biso  1.000000 C
   C7         1.0     0.444719      0.357260     -0.002564     Biso  1.000000 C
   C8         1.0     0.555281      0.642740      0.002564     Biso  1.000000 C
   C9         1.0     0.078576      0.095215      0.134947     Biso  1.000000 C
   C10        1.0     0.921424      0.904785      0.865053     Biso  1.000000 C
   C11        1.0     0.421424      0.904785      0.634947     Biso  1.000000 C
   C12        1.0     0.578576      0.095215      0.365053     Biso  1.000000 C
   C13        1.0     0.921424      0.595215      0.365053     Biso  1.000000 C
   C14        1.0     0.078576      0.404785      0.634947     Biso  1.000000 C
   C15        1.0     0.578576      0.404785      0.865053     Biso  1.000000 C
   C16        1.0     0.421424      0.595215      0.134947     Biso  1.000000 C
   C17        1.0     0.865749      0.047378      0.867534     Biso  1.000000 C
   C18        1.0     0.134251      0.952622      0.132466     Biso  1.000000 C
   C19        1.0     0.634251      0.952622      0.367534     Biso  1.000000 C
   C20        1.0     0.365749      0.047378      0.632466     Biso  1.000000 C
   C21        1.0     0.134251      0.547378      0.632466     Biso  1.000000 C
   C22        1.0     0.865749      0.452622      0.367534     Biso  1.000000 C
   C23        1.0     0.365749      0.452622      0.132466     Biso  1.000000 C
   C24        1.0     0.634251      0.547378      0.867534     Biso  1.000000 C
   H1         1.0     0.902006      0.254170      0.004841     Biso  1.000000 H
   H2         1.0     0.097994      0.745830     -0.004841     Biso  1.000000 H
   H3         1.0     0.597994      0.745830      0.504840     Biso  1.000000 H
   H4         1.0     0.402006      0.254170      0.495159     Biso  1.000000 H
   H5         1.0     0.097994      0.754170      0.495159     Biso  1.000000 H
   H6         1.0     0.902006      0.245830      0.504840     Biso  1.000000 H
   H7         1.0     0.402006      0.245830     -0.004841     Biso  1.000000 H
   H8         1.0     0.597994      0.754170      0.004841     Biso  1.000000 H
   H9         1.0     0.139494      0.169053      0.241208     Biso  1.000000 H
   H10        1.0     0.860506      0.830947      0.758792     Biso  1.000000 H
   H11        1.0     0.360506      0.830947      0.741208     Biso  1.000000 H
   H12        1.0     0.639494      0.169053      0.258792     Biso  1.000000 H
   H13        1.0     0.860506      0.669053      0.258792     Biso  1.000000 H
   H14        1.0     0.139494      0.330947      0.741208     Biso  1.000000 H
   H15        1.0     0.639494      0.330947      0.758792     Biso  1.000000 H
   H16        1.0     0.360506      0.669053      0.241208     Biso  1.000000 H
   H17        1.0     0.760592      0.083058      0.764155     Biso  1.000000 H
   H18        1.0     0.239408      0.916942      0.235845     Biso  1.000000 H
   H19        1.0     0.739408      0.916942      0.264155     Biso  1.000000 H
   H20        1.0     0.260592      0.083058      0.735845     Biso  1.000000 H
   H21        1.0     0.239408      0.583058      0.735845     Biso  1.000000 H
   H22        1.0     0.760592      0.416942      0.264155     Biso  1.000000 H
   H23        1.0     0.260592      0.416942      0.235845     Biso  1.000000 H
   H24        1.0     0.739408      0.583058      0.764155     Biso  1.000000 H
