#======================================================================

# CRYSTAL DATA

#----------------------------------------------------------------------

data_VESTA_phase_1


_chemical_name_common                  'methane-high                          '
_cell_length_a                         11.70790
_cell_length_b                         8.18930
_cell_length_c                         8.18420
_cell_angle_alpha                      90
_cell_angle_beta                       90
_cell_angle_gamma                      90
_space_group_name_H-M_alt              'P 1'
_space_group_IT_number                 1

loop_
_space_group_symop_operation_xyz
   'x, y, z'

loop_
   _atom_site_label
   _atom_site_occupancy
   _atom_site_fract_x
   _atom_site_fract_y
   _atom_site_fract_z
   _atom_site_adp_type
   _atom_site_B_iso_or_equiv
   _atom_site_type_symbol
   H1         1.0     0.804157      0.583929      0.930841     Biso  1.000000 H
   H2         1.0     0.195843      0.416071      0.069159     Biso  1.000000 H
   H3         1.0     0.195843      0.916071      0.430841     Biso  1.000000 H
   H4         1.0     0.804157      0.083929      0.569159     Biso  1.000000 H
   H5         1.0     0.195843      0.083929      0.569159     Biso  1.000000 H
   H6         1.0     0.804157      0.916071      0.430841     Biso  1.000000 H
   H7         1.0     0.804157      0.416071      0.069159     Biso  1.000000 H
   H8         1.0     0.195843      0.583929      0.930841     Biso  1.000000 H
   H9         1.0     0.304157      0.083929      0.930841     Biso  1.000000 H
   H10        1.0     0.695843      0.916071      0.069159     Biso  1.000000 H
   H11        1.0     0.695843      0.416071      0.430841     Biso  1.000000 H
   H12        1.0     0.304157      0.583929      0.569159     Biso  1.000000 H
   H13        1.0     0.695843      0.583929      0.569159     Biso  1.000000 H
   H14        1.0     0.304157      0.416071      0.430841     Biso  1.000000 H
   H15        1.0     0.304157      0.916071      0.069159     Biso  1.000000 H
   H16        1.0     0.695843      0.083929      0.930841     Biso  1.000000 H
   H17        1.0     0.695379      0.570284      0.083610     Biso  1.000000 H
   H18        1.0     0.304621      0.429716      0.916390     Biso  1.000000 H
   H19        1.0     0.304621      0.929716      0.583610     Biso  1.000000 H
   H20        1.0     0.695379      0.070284      0.416390     Biso  1.000000 H
   H21        1.0     0.304621      0.070284      0.416390     Biso  1.000000 H
   H22        1.0     0.695379      0.929716      0.583610     Biso  1.000000 H
   H23        1.0     0.695379      0.429716      0.916390     Biso  1.000000 H
   H24        1.0     0.304621      0.570284      0.083610     Biso  1.000000 H
   H25        1.0     0.195379      0.070284      0.083610     Biso  1.000000 H
   H26        1.0     0.804621      0.929716      0.916390     Biso  1.000000 H
   H27        1.0     0.804621      0.429716      0.583610     Biso  1.000000 H
   H28        1.0     0.195379      0.570284      0.416390     Biso  1.000000 H
   H29        1.0     0.804621      0.570284      0.416390     Biso  1.000000 H
   H30        1.0     0.195379      0.429716      0.583610     Biso  1.000000 H
   H31        1.0     0.195379      0.929716      0.916390     Biso  1.000000 H
   H32        1.0     0.804621      0.070284      0.083610     Biso  1.000000 H
   H33        1.0     0.080455      0.793157      0.191370     Biso  1.000000 H
   H34        1.0     0.919545      0.206843      0.808630     Biso  1.000000 H
   H35        1.0     0.919545      0.706843      0.691370     Biso  1.000000 H
   H36        1.0     0.080455      0.293157      0.308630     Biso  1.000000 H
   H37        1.0     0.919545      0.293157      0.308630     Biso  1.000000 H
   H38        1.0     0.080455      0.706843      0.691370     Biso  1.000000 H
   H39        1.0     0.080455      0.206843      0.808630     Biso  1.000000 H
   H40        1.0     0.919545      0.793157      0.191370     Biso  1.000000 H
   H41        1.0     0.580455      0.293157      0.191370     Biso  1.000000 H
   H42        1.0     0.419545      0.706843      0.808630     Biso  1.000000 H
   H43        1.0     0.419545      0.206843      0.691370     Biso  1.000000 H
   H44        1.0     0.580455      0.793157      0.308630     Biso  1.000000 H
   H45        1.0     0.419545      0.793157      0.308630     Biso  1.000000 H
   H46        1.0     0.580455      0.206843      0.691370     Biso  1.000000 H
   H47        1.0     0.580455      0.706843      0.808630     Biso  1.000000 H
   H48        1.0     0.419545      0.293157      0.191370     Biso  1.000000 H
   H49        1.0    -0.000000      0.595277      0.210311     Biso  1.000000 H
   H50        1.0    -0.000000      0.404723      0.789689     Biso  1.000000 H
   H51        1.0    -0.000000      0.904723      0.710311     Biso  1.000000 H
   H52        1.0    -0.000000      0.095277      0.289689     Biso  1.000000 H
   H53        1.0     0.500000      0.095277      0.210311     Biso  1.000000 H
   H54        1.0     0.500000      0.904723      0.789689     Biso  1.000000 H
   H55        1.0     0.500000      0.404723      0.710311     Biso  1.000000 H
   H56        1.0     0.500000      0.595277      0.289689     Biso  1.000000 H
   C1         1.0    -0.000000      0.727493      0.199268     Biso  1.000000 C
   C2         1.0    -0.000000      0.272507      0.800732     Biso  1.000000 C
   C3         1.0    -0.000000      0.772507      0.699268     Biso  1.000000 C
   C4         1.0    -0.000000      0.227493      0.300732     Biso  1.000000 C
   C5         1.0     0.500000      0.227493      0.199268     Biso  1.000000 C
   C6         1.0     0.500000      0.772507      0.800732     Biso  1.000000 C
   C7         1.0     0.500000      0.272507      0.699268     Biso  1.000000 C
   C8         1.0     0.500000      0.727493      0.300732     Biso  1.000000 C
   C9         1.0     0.749521      0.500000      0.000000     Biso  1.000000 C
   C10        1.0     0.250479      0.500000      0.000000     Biso  1.000000 C
   C11        1.0     0.250479     -0.000000      0.500000     Biso  1.000000 C
   C12        1.0     0.749521     -0.000000      0.500000     Biso  1.000000 C
   C13        1.0     0.249521     -0.000000      0.000000     Biso  1.000000 C
   C14        1.0     0.750479     -0.000000      0.000000     Biso  1.000000 C
   C15        1.0     0.750479      0.500000      0.500000     Biso  1.000000 C
   C16        1.0     0.249521      0.500000      0.500000     Biso  1.000000 C
