#======================================================================

# CRYSTAL DATA

#----------------------------------------------------------------------

data_VESTA_phase_1


_chemical_name_common                  'methane-low                           '
_cell_length_a                         11.70790
_cell_length_b                         8.18930
_cell_length_c                         8.18420
_cell_angle_alpha                      90
_cell_angle_beta                       90
_cell_angle_gamma                      90
_space_group_name_H-M_alt              'P 1'
_space_group_IT_number                 1

loop_
_space_group_symop_operation_xyz
   'x, y, z'

loop_
   _atom_site_label
   _atom_site_occupancy
   _atom_site_fract_x
   _atom_site_fract_y
   _atom_site_fract_z
   _atom_site_adp_type
   _atom_site_B_iso_or_equiv
   _atom_site_type_symbol
   H1         1.0     0.076550      0.806976      0.219546     Biso  1.000000 H
   H2         1.0     0.923450      0.193024      0.780454     Biso  1.000000 H
   H3         1.0     0.923450      0.693024      0.719546     Biso  1.000000 H
   H4         1.0     0.076550      0.306976      0.280454     Biso  1.000000 H
   H5         1.0     0.923450      0.306976      0.280454     Biso  1.000000 H
   H6         1.0     0.076550      0.693024      0.719546     Biso  1.000000 H
   H7         1.0     0.076550      0.193024      0.780454     Biso  1.000000 H
   H8         1.0     0.923450      0.806976      0.219546     Biso  1.000000 H
   H9         1.0     0.576550      0.306976      0.219546     Biso  1.000000 H
   H10        1.0     0.423450      0.693024      0.780454     Biso  1.000000 H
   H11        1.0     0.423450      0.193024      0.719546     Biso  1.000000 H
   H12        1.0     0.576550      0.806976      0.280454     Biso  1.000000 H
   H13        1.0     0.423450      0.806976      0.280454     Biso  1.000000 H
   H14        1.0     0.576550      0.193024      0.719546     Biso  1.000000 H
   H15        1.0     0.576550      0.693024      0.780454     Biso  1.000000 H
   H16        1.0     0.423450      0.306976      0.219546     Biso  1.000000 H
   H17        1.0     0.811122      0.585891      0.932809     Biso  1.000000 H
   H18        1.0     0.188878      0.414109      0.067191     Biso  1.000000 H
   H19        1.0     0.188878      0.914109      0.432809     Biso  1.000000 H
   H20        1.0     0.811122      0.085891      0.567191     Biso  1.000000 H
   H21        1.0     0.188878      0.085891      0.567191     Biso  1.000000 H
   H22        1.0     0.811122      0.914109      0.432809     Biso  1.000000 H
   H23        1.0     0.811122      0.414109      0.067191     Biso  1.000000 H
   H24        1.0     0.188878      0.585891      0.932809     Biso  1.000000 H
   H25        1.0     0.311122      0.085891      0.932809     Biso  1.000000 H
   H26        1.0     0.688878      0.914109      0.067191     Biso  1.000000 H
   H27        1.0     0.688878      0.414109      0.432809     Biso  1.000000 H
   H28        1.0     0.311122      0.585891      0.567191     Biso  1.000000 H
   H29        1.0     0.688878      0.585891      0.567191     Biso  1.000000 H
   H30        1.0     0.311122      0.414109      0.432809     Biso  1.000000 H
   H31        1.0     0.311122      0.914109      0.067191     Biso  1.000000 H
   H32        1.0     0.688878      0.085891      0.932809     Biso  1.000000 H
   H33        1.0     0.702997      0.567557      0.085931     Biso  1.000000 H
   H34        1.0     0.297003      0.432443      0.914069     Biso  1.000000 H
   H35        1.0     0.297003      0.932443      0.585931     Biso  1.000000 H
   H36        1.0     0.702997      0.067557      0.414069     Biso  1.000000 H
   H37        1.0     0.297003      0.067557      0.414069     Biso  1.000000 H
   H38        1.0     0.702997      0.932443      0.585931     Biso  1.000000 H
   H39        1.0     0.702997      0.432443      0.914069     Biso  1.000000 H
   H40        1.0     0.297003      0.567557      0.085931     Biso  1.000000 H
   H41        1.0     0.202997      0.067557      0.085931     Biso  1.000000 H
   H42        1.0     0.797003      0.932443      0.914069     Biso  1.000000 H
   H43        1.0     0.797003      0.432443      0.585931     Biso  1.000000 H
   H44        1.0     0.202997      0.567557      0.414069     Biso  1.000000 H
   H45        1.0     0.797003      0.567557      0.414069     Biso  1.000000 H
   H46        1.0     0.202997      0.432443      0.585931     Biso  1.000000 H
   H47        1.0     0.202997      0.932443      0.914069     Biso  1.000000 H
   H48        1.0     0.797003      0.067557      0.085931     Biso  1.000000 H
   H49        1.0    -0.000000      0.619816      0.191285     Biso  1.000000 H
   H50        1.0    -0.000000      0.380184      0.808715     Biso  1.000000 H
   H51        1.0    -0.000000      0.880184      0.691285     Biso  1.000000 H
   H52        1.0    -0.000000      0.119816      0.308715     Biso  1.000000 H
   H53        1.0     0.500000      0.119816      0.191285     Biso  1.000000 H
   H54        1.0     0.500000      0.880184      0.808715     Biso  1.000000 H
   H55        1.0     0.500000      0.380184      0.691285     Biso  1.000000 H
   H56        1.0     0.500000      0.619816      0.308715     Biso  1.000000 H
   H57        1.0    -0.000000      0.271744      0.465803     Biso  1.000000 H
   H58        1.0    -0.000000      0.728256      0.534197     Biso  1.000000 H
   H59        1.0    -0.000000      0.228256      0.965803     Biso  1.000000 H
   H60        1.0    -0.000000      0.771744      0.034197     Biso  1.000000 H
   H61        1.0     0.500000      0.771744      0.465803     Biso  1.000000 H
   H62        1.0     0.500000      0.228256      0.534197     Biso  1.000000 H
   H63        1.0     0.500000      0.728256      0.965803     Biso  1.000000 H
   H64        1.0     0.500000      0.271744      0.034197     Biso  1.000000 H
   C1         1.0    -0.000000      0.251236      0.333552     Biso  1.000000 C
   C2         1.0    -0.000000      0.748764      0.666448     Biso  1.000000 C
   C3         1.0    -0.000000      0.248764      0.833552     Biso  1.000000 C
   C4         1.0    -0.000000      0.751236      0.166448     Biso  1.000000 C
   C5         1.0     0.500000      0.751236      0.333552     Biso  1.000000 C
   C6         1.0     0.500000      0.248764      0.666448     Biso  1.000000 C
   C7         1.0     0.500000      0.748764      0.833552     Biso  1.000000 C
   C8         1.0     0.500000      0.251236      0.166448     Biso  1.000000 C
   C9         1.0     0.756969      0.500000     -0.000000     Biso  1.000000 C
   C10        1.0     0.243031      0.500000     -0.000000     Biso  1.000000 C
   C11        1.0     0.243031      0.000000      0.500000     Biso  1.000000 C
   C12        1.0     0.756969      0.000000      0.500000     Biso  1.000000 C
   C13        1.0     0.256969      0.000000     -0.000000     Biso  1.000000 C
   C14        1.0     0.743031      0.000000     -0.000000     Biso  1.000000 C
   C15        1.0     0.743031      0.500000      0.500000     Biso  1.000000 C
   C16        1.0     0.256969      0.500000      0.500000     Biso  1.000000 C
