#======================================================================

# CRYSTAL DATA

#----------------------------------------------------------------------

data_VESTA_phase_1


_chemical_name_common                  'methane-low                           '
_cell_length_a                         11.62932
_cell_length_b                         8.13434
_cell_length_c                         8.12927
_cell_angle_alpha                      90
_cell_angle_beta                       90
_cell_angle_gamma                      90
_space_group_name_H-M_alt              'P 1'
_space_group_IT_number                 1

loop_
_space_group_symop_operation_xyz
   'x, y, z'

loop_
   _atom_site_label
   _atom_site_occupancy
   _atom_site_fract_x
   _atom_site_fract_y
   _atom_site_fract_z
   _atom_site_adp_type
   _atom_site_B_iso_or_equiv
   _atom_site_type_symbol
   H1         1.0     0.026381      0.812594      0.149297     Biso  1.000000 H
   H2         1.0     0.973619      0.187406      0.850703     Biso  1.000000 H
   H3         1.0     0.973619      0.687406      0.649297     Biso  1.000000 H
   H4         1.0     0.026381      0.312594      0.350703     Biso  1.000000 H
   H5         1.0     0.973619      0.312594      0.350703     Biso  1.000000 H
   H6         1.0     0.026381      0.687406      0.649297     Biso  1.000000 H
   H7         1.0     0.026381      0.187406      0.850703     Biso  1.000000 H
   H8         1.0     0.973619      0.812594      0.149297     Biso  1.000000 H
   H9         1.0     0.526381      0.312594      0.149297     Biso  1.000000 H
   H10        1.0     0.473619      0.687406      0.850703     Biso  1.000000 H
   H11        1.0     0.473619      0.187406      0.649297     Biso  1.000000 H
   H12        1.0     0.526381      0.812594      0.350703     Biso  1.000000 H
   H13        1.0     0.473619      0.812594      0.350703     Biso  1.000000 H
   H14        1.0     0.526381      0.187406      0.649297     Biso  1.000000 H
   H15        1.0     0.526381      0.687406      0.850703     Biso  1.000000 H
   H16        1.0     0.473619      0.312594      0.149297     Biso  1.000000 H
   H17        1.0     0.789154      0.581759      0.930983     Biso  1.000000 H
   H18        1.0     0.210846      0.418241      0.069017     Biso  1.000000 H
   H19        1.0     0.210846      0.918241      0.430983     Biso  1.000000 H
   H20        1.0     0.789154      0.081759      0.569017     Biso  1.000000 H
   H21        1.0     0.210846      0.081759      0.569017     Biso  1.000000 H
   H22        1.0     0.789154      0.918241      0.430983     Biso  1.000000 H
   H23        1.0     0.789154      0.418241      0.069017     Biso  1.000000 H
   H24        1.0     0.210846      0.581759      0.930983     Biso  1.000000 H
   H25        1.0     0.289154      0.081759      0.930983     Biso  1.000000 H
   H26        1.0     0.710846      0.918241      0.069017     Biso  1.000000 H
   H27        1.0     0.710846      0.418241      0.430983     Biso  1.000000 H
   H28        1.0     0.289154      0.581759      0.569017     Biso  1.000000 H
   H29        1.0     0.710846      0.581759      0.569017     Biso  1.000000 H
   H30        1.0     0.289154      0.418241      0.430983     Biso  1.000000 H
   H31        1.0     0.289154      0.918241      0.069017     Biso  1.000000 H
   H32        1.0     0.710846      0.081759      0.930983     Biso  1.000000 H
   H33        1.0     0.681483      0.571059      0.083196     Biso  1.000000 H
   H34        1.0     0.318517      0.428941      0.916804     Biso  1.000000 H
   H35        1.0     0.318517      0.928941      0.583196     Biso  1.000000 H
   H36        1.0     0.681483      0.071059      0.416804     Biso  1.000000 H
   H37        1.0     0.318517      0.071059      0.416804     Biso  1.000000 H
   H38        1.0     0.681483      0.928941      0.583196     Biso  1.000000 H
   H39        1.0     0.681483      0.428941      0.916804     Biso  1.000000 H
   H40        1.0     0.318517      0.571059      0.083196     Biso  1.000000 H
   H41        1.0     0.181483      0.071059      0.083196     Biso  1.000000 H
   H42        1.0     0.818517      0.928941      0.916804     Biso  1.000000 H
   H43        1.0     0.818517      0.428941      0.583196     Biso  1.000000 H
   H44        1.0     0.181483      0.571059      0.416804     Biso  1.000000 H
   H45        1.0     0.818517      0.571059      0.416804     Biso  1.000000 H
   H46        1.0     0.181483      0.428941      0.583196     Biso  1.000000 H
   H47        1.0     0.181483      0.928941      0.916804     Biso  1.000000 H
   H48        1.0     0.818517      0.071059      0.083196     Biso  1.000000 H
   H49        1.0     0.000000      0.488491      0.243353     Biso  1.000000 H
   H50        1.0     0.000000      0.511509      0.756647     Biso  1.000000 H
   H51        1.0     0.000000      0.011509      0.743353     Biso  1.000000 H
   H52        1.0     0.000000     -0.011509      0.256647     Biso  1.000000 H
   H53        1.0     0.500000     -0.011509      0.243353     Biso  1.000000 H
   H54        1.0     0.500000      0.011509      0.756647     Biso  1.000000 H
   H55        1.0     0.500000      0.511509      0.743353     Biso  1.000000 H
   H56        1.0     0.500000      0.488491      0.256647     Biso  1.000000 H
   H57        1.0     0.000000      0.641530      0.097738     Biso  1.000000 H
   H58        1.0     0.000000      0.358470     -0.097738     Biso  1.000000 H
   H59        1.0     0.000000     -0.141530     -0.402262     Biso  1.000000 H
   H60        1.0     0.000000      0.141530      0.402262     Biso  1.000000 H
   H61        1.0     0.500000      0.141530      0.097738     Biso  1.000000 H
   H62        1.0     0.500000     -0.141530     -0.097738     Biso  1.000000 H
   H63        1.0     0.500000      0.358470     -0.402262     Biso  1.000000 H
   H64        1.0     0.500000      0.641530      0.402262     Biso  1.000000 H
   C1         1.0     0.000000      0.487291     -0.074788     Biso  1.000000 C
   C2         1.0     0.000000      0.512709      0.074788     Biso  1.000000 C
   C3         1.0     0.000000      0.012709      0.425212     Biso  1.000000 C
   C4         1.0     0.000000     -0.012709     -0.425212     Biso  1.000000 C
   C5         1.0     0.500000     -0.012709     -0.074788     Biso  1.000000 C
   C6         1.0     0.500000      0.012709      0.074788     Biso  1.000000 C
   C7         1.0     0.500000      0.512709      0.425212     Biso  1.000000 C
   C8         1.0     0.500000      0.487291     -0.425212     Biso  1.000000 C
   C9         1.0     0.732255      0.500000      0.000000     Biso  1.000000 C
   C10        1.0     0.267745      0.500000      0.000000     Biso  1.000000 C
   C11        1.0     0.267745      0.000000      0.500000     Biso  1.000000 C
   C12        1.0     0.732255      0.000000      0.500000     Biso  1.000000 C
   C13        1.0     0.232255      0.000000      0.000000     Biso  1.000000 C
   C14        1.0     0.767745      0.000000      0.000000     Biso  1.000000 C
   C15        1.0     0.767745      0.500000      0.500000     Biso  1.000000 C
   C16        1.0     0.232255      0.500000      0.500000     Biso  1.000000 C
