#======================================================================

# CRYSTAL DATA

#----------------------------------------------------------------------

data_VESTA_phase_1


_chemical_name_common                  'methane-low                           '
_cell_length_a                         11.46890
_cell_length_b                         8.02212
_cell_length_c                         8.01713
_cell_angle_alpha                      90
_cell_angle_beta                       90
_cell_angle_gamma                      90
_space_group_name_H-M_alt              'P 1'
_space_group_IT_number                 1

loop_
_space_group_symop_operation_xyz
   'x, y, z'

loop_
   _atom_site_label
   _atom_site_occupancy
   _atom_site_fract_x
   _atom_site_fract_y
   _atom_site_fract_z
   _atom_site_adp_type
   _atom_site_B_iso_or_equiv
   _atom_site_type_symbol
   H1         1.0     0.077942      0.796148      0.153075     Biso  1.000000 H
   H2         1.0     0.922058      0.203852      0.846925     Biso  1.000000 H
   H3         1.0     0.922058      0.703852      0.653075     Biso  1.000000 H
   H4         1.0     0.077942      0.296148      0.346925     Biso  1.000000 H
   H5         1.0     0.922058      0.296148      0.346925     Biso  1.000000 H
   H6         1.0     0.077942      0.703852      0.653075     Biso  1.000000 H
   H7         1.0     0.077942      0.203852      0.846925     Biso  1.000000 H
   H8         1.0     0.922058      0.796148      0.153075     Biso  1.000000 H
   H9         1.0     0.577942      0.296148      0.153075     Biso  1.000000 H
   H10        1.0     0.422058      0.703852      0.846925     Biso  1.000000 H
   H11        1.0     0.422058      0.203852      0.653075     Biso  1.000000 H
   H12        1.0     0.577942      0.796148      0.346925     Biso  1.000000 H
   H13        1.0     0.422058      0.796148      0.346925     Biso  1.000000 H
   H14        1.0     0.577942      0.203852      0.653075     Biso  1.000000 H
   H15        1.0     0.577942      0.703852      0.846925     Biso  1.000000 H
   H16        1.0     0.422058      0.296148      0.153075     Biso  1.000000 H
   H17        1.0     0.805071      0.585509      0.928589     Biso  1.000000 H
   H18        1.0     0.194929      0.414491      0.071411     Biso  1.000000 H
   H19        1.0     0.194929      0.914491      0.428589     Biso  1.000000 H
   H20        1.0     0.805071      0.085509      0.571411     Biso  1.000000 H
   H21        1.0     0.194929      0.085509      0.571411     Biso  1.000000 H
   H22        1.0     0.805071      0.914491      0.428589     Biso  1.000000 H
   H23        1.0     0.805071      0.414491      0.071411     Biso  1.000000 H
   H24        1.0     0.194929      0.585509      0.928589     Biso  1.000000 H
   H25        1.0     0.305071      0.085509      0.928589     Biso  1.000000 H
   H26        1.0     0.694929      0.914491      0.071411     Biso  1.000000 H
   H27        1.0     0.694929      0.414491      0.428589     Biso  1.000000 H
   H28        1.0     0.305071      0.585509      0.571411     Biso  1.000000 H
   H29        1.0     0.694929      0.585509      0.571411     Biso  1.000000 H
   H30        1.0     0.305071      0.414491      0.428589     Biso  1.000000 H
   H31        1.0     0.305071      0.914491      0.071411     Biso  1.000000 H
   H32        1.0     0.694929      0.085509      0.928589     Biso  1.000000 H
   H33        1.0     0.694828      0.571368      0.085878     Biso  1.000000 H
   H34        1.0     0.305172      0.428632      0.914122     Biso  1.000000 H
   H35        1.0     0.305172      0.928632      0.585878     Biso  1.000000 H
   H36        1.0     0.694828      0.071368      0.414122     Biso  1.000000 H
   H37        1.0     0.305172      0.071368      0.414122     Biso  1.000000 H
   H38        1.0     0.694828      0.928632      0.585878     Biso  1.000000 H
   H39        1.0     0.694828      0.428632      0.914122     Biso  1.000000 H
   H40        1.0     0.305172      0.571368      0.085878     Biso  1.000000 H
   H41        1.0     0.194828      0.071368      0.085878     Biso  1.000000 H
   H42        1.0     0.805172      0.928632      0.914122     Biso  1.000000 H
   H43        1.0     0.805172      0.428632      0.585878     Biso  1.000000 H
   H44        1.0     0.194828      0.571368      0.414122     Biso  1.000000 H
   H45        1.0     0.805172      0.571368      0.414122     Biso  1.000000 H
   H46        1.0     0.194828      0.428632      0.585878     Biso  1.000000 H
   H47        1.0     0.194828      0.928632      0.914122     Biso  1.000000 H
   H48        1.0     0.805172      0.071368      0.085878     Biso  1.000000 H
   H49        1.0     0.000000      0.603050      0.157661     Biso  1.000000 H
   H50        1.0     0.000000      0.396950      0.842339     Biso  1.000000 H
   H51        1.0     0.000000      0.896950      0.657661     Biso  1.000000 H
   H52        1.0     0.000000      0.103050      0.342339     Biso  1.000000 H
   H53        1.0     0.500000      0.103050      0.157661     Biso  1.000000 H
   H54        1.0     0.500000      0.896950      0.842339     Biso  1.000000 H
   H55        1.0     0.500000      0.396950      0.657661     Biso  1.000000 H
   H56        1.0     0.500000      0.603050      0.342339     Biso  1.000000 H
   H57        1.0     0.000000      0.264051      0.663249     Biso  1.000000 H
   H58        1.0     0.000000      0.735949      0.336751     Biso  1.000000 H
   H59        1.0     0.000000      0.235949      0.163249     Biso  1.000000 H
   H60        1.0     0.000000      0.764051      0.836751     Biso  1.000000 H
   H61        1.0     0.500000      0.764051      0.663249     Biso  1.000000 H
   H62        1.0     0.500000      0.235949      0.336751     Biso  1.000000 H
   H63        1.0     0.500000      0.735949      0.163249     Biso  1.000000 H
   H64        1.0     0.500000      0.264051      0.836751     Biso  1.000000 H
   C1         1.0     0.000000      0.232783      0.299835     Biso  1.000000 C
   C2         1.0     0.000000      0.767217      0.700165     Biso  1.000000 C
   C3         1.0     0.000000      0.267217      0.799835     Biso  1.000000 C
   C4         1.0     0.000000      0.732783      0.200165     Biso  1.000000 C
   C5         1.0     0.500000      0.732783      0.299835     Biso  1.000000 C
   C6         1.0     0.500000      0.267217      0.700165     Biso  1.000000 C
   C7         1.0     0.500000      0.767217      0.799835     Biso  1.000000 C
   C8         1.0     0.500000      0.232783      0.200165     Biso  1.000000 C
   C9         1.0     0.749860      0.500000      0.000000     Biso  1.000000 C
   C10        1.0     0.250140      0.500000      0.000000     Biso  1.000000 C
   C11        1.0     0.250140      0.000000      0.500000     Biso  1.000000 C
   C12        1.0     0.749860      0.000000      0.500000     Biso  1.000000 C
   C13        1.0     0.249860      0.000000      0.000000     Biso  1.000000 C
   C14        1.0     0.750140      0.000000      0.000000     Biso  1.000000 C
   C15        1.0     0.750140      0.500000      0.500000     Biso  1.000000 C
   C16        1.0     0.249860      0.500000      0.500000     Biso  1.000000 C
