#======================================================================

# CRYSTAL DATA

#----------------------------------------------------------------------

data_VESTA_phase_1


_chemical_name_common                  'methane-high                          '
_cell_length_a                         11.30385
_cell_length_b                         7.90668
_cell_length_c                         7.90176
_cell_angle_alpha                      90
_cell_angle_beta                       90
_cell_angle_gamma                      90
_space_group_name_H-M_alt              'P 1'
_space_group_IT_number                 1

loop_
_space_group_symop_operation_xyz
   'x, y, z'

loop_
   _atom_site_label
   _atom_site_occupancy
   _atom_site_fract_x
   _atom_site_fract_y
   _atom_site_fract_z
   _atom_site_adp_type
   _atom_site_B_iso_or_equiv
   _atom_site_type_symbol
   H1         1.0     0.805714      0.587110      0.928867     Biso  1.000000 H
   H2         1.0     0.194286      0.412890      0.071133     Biso  1.000000 H
   H3         1.0     0.194286      0.912890      0.428867     Biso  1.000000 H
   H4         1.0     0.805714      0.087110      0.571133     Biso  1.000000 H
   H5         1.0     0.194286      0.087110      0.571133     Biso  1.000000 H
   H6         1.0     0.805714      0.912890      0.428867     Biso  1.000000 H
   H7         1.0     0.805714      0.412890      0.071133     Biso  1.000000 H
   H8         1.0     0.194286      0.587110      0.928867     Biso  1.000000 H
   H9         1.0     0.305714      0.087110      0.928867     Biso  1.000000 H
   H10        1.0     0.694286      0.912890      0.071133     Biso  1.000000 H
   H11        1.0     0.694286      0.412890      0.428867     Biso  1.000000 H
   H12        1.0     0.305714      0.587110      0.571133     Biso  1.000000 H
   H13        1.0     0.694286      0.587110      0.571133     Biso  1.000000 H
   H14        1.0     0.305714      0.412890      0.428867     Biso  1.000000 H
   H15        1.0     0.305714      0.912890      0.071133     Biso  1.000000 H
   H16        1.0     0.694286      0.087110      0.928867     Biso  1.000000 H
   H17        1.0     0.693116      0.572435      0.086811     Biso  1.000000 H
   H18        1.0     0.306884      0.427565      0.913189     Biso  1.000000 H
   H19        1.0     0.306884      0.927565      0.586811     Biso  1.000000 H
   H20        1.0     0.693116      0.072435      0.413189     Biso  1.000000 H
   H21        1.0     0.306884      0.072435      0.413189     Biso  1.000000 H
   H22        1.0     0.693116      0.927565      0.586811     Biso  1.000000 H
   H23        1.0     0.693116      0.427565      0.913189     Biso  1.000000 H
   H24        1.0     0.306884      0.572435      0.086811     Biso  1.000000 H
   H25        1.0     0.193116      0.072435      0.086811     Biso  1.000000 H
   H26        1.0     0.806884      0.927565      0.913189     Biso  1.000000 H
   H27        1.0     0.806884      0.427565      0.586811     Biso  1.000000 H
   H28        1.0     0.193116      0.572435      0.413189     Biso  1.000000 H
   H29        1.0     0.806884      0.572435      0.413189     Biso  1.000000 H
   H30        1.0     0.193116      0.427565      0.586811     Biso  1.000000 H
   H31        1.0     0.193116      0.927565      0.913189     Biso  1.000000 H
   H32        1.0     0.806884      0.072435      0.086811     Biso  1.000000 H
   H33        1.0     0.083239      0.797255      0.189184     Biso  1.000000 H
   H34        1.0     0.916761      0.202745      0.810816     Biso  1.000000 H
   H35        1.0     0.916761      0.702745      0.689184     Biso  1.000000 H
   H36        1.0     0.083239      0.297255      0.310816     Biso  1.000000 H
   H37        1.0     0.916761      0.297255      0.310816     Biso  1.000000 H
   H38        1.0     0.083239      0.702745      0.689184     Biso  1.000000 H
   H39        1.0     0.083239      0.202745      0.810816     Biso  1.000000 H
   H40        1.0     0.916761      0.797255      0.189184     Biso  1.000000 H
   H41        1.0     0.583239      0.297255      0.189184     Biso  1.000000 H
   H42        1.0     0.416761      0.702745      0.810816     Biso  1.000000 H
   H43        1.0     0.416761      0.202745      0.689184     Biso  1.000000 H
   H44        1.0     0.583239      0.797255      0.310816     Biso  1.000000 H
   H45        1.0     0.416761      0.797255      0.310816     Biso  1.000000 H
   H46        1.0     0.583239      0.202745      0.689184     Biso  1.000000 H
   H47        1.0     0.583239      0.702745      0.810816     Biso  1.000000 H
   H48        1.0     0.416761      0.297255      0.189184     Biso  1.000000 H
   H49        1.0    -0.000000      0.592394      0.208470     Biso  1.000000 H
   H50        1.0    -0.000000      0.407606      0.791530     Biso  1.000000 H
   H51        1.0    -0.000000      0.907606      0.708470     Biso  1.000000 H
   H52        1.0    -0.000000      0.092394      0.291530     Biso  1.000000 H
   H53        1.0     0.500000      0.092394      0.208470     Biso  1.000000 H
   H54        1.0     0.500000      0.907606      0.791530     Biso  1.000000 H
   H55        1.0     0.500000      0.407606      0.708470     Biso  1.000000 H
   H56        1.0     0.500000      0.592394      0.291530     Biso  1.000000 H
   C1         1.0    -0.000000      0.729221      0.197810     Biso  1.000000 C
   C2         1.0    -0.000000      0.270779      0.802190     Biso  1.000000 C
   C3         1.0    -0.000000      0.770779      0.697810     Biso  1.000000 C
   C4         1.0    -0.000000      0.229221      0.302190     Biso  1.000000 C
   C5         1.0     0.500000      0.229221      0.197810     Biso  1.000000 C
   C6         1.0     0.500000      0.770779      0.802190     Biso  1.000000 C
   C7         1.0     0.500000      0.270779      0.697810     Biso  1.000000 C
   C8         1.0     0.500000      0.729221      0.302190     Biso  1.000000 C
   C9         1.0     0.749219      0.500000     -0.000000     Biso  1.000000 C
   C10        1.0     0.250781      0.500000     -0.000000     Biso  1.000000 C
   C11        1.0     0.250781     -0.000000      0.500000     Biso  1.000000 C
   C12        1.0     0.749219     -0.000000      0.500000     Biso  1.000000 C
   C13        1.0     0.249219     -0.000000     -0.000000     Biso  1.000000 C
   C14        1.0     0.750781     -0.000000     -0.000000     Biso  1.000000 C
   C15        1.0     0.750781      0.500000      0.500000     Biso  1.000000 C
   C16        1.0     0.249219      0.500000      0.500000     Biso  1.000000 C
