#======================================================================

# CRYSTAL DATA

#----------------------------------------------------------------------

data_VESTA_phase_1


_chemical_name_common                  'methane-low                           '
_cell_length_a                         11.30385
_cell_length_b                         7.90668
_cell_length_c                         7.90176
_cell_angle_alpha                      90
_cell_angle_beta                       90
_cell_angle_gamma                      90
_space_group_name_H-M_alt              'P 1'
_space_group_IT_number                 1

loop_
_space_group_symop_operation_xyz
   'x, y, z'

loop_
   _atom_site_label
   _atom_site_occupancy
   _atom_site_fract_x
   _atom_site_fract_y
   _atom_site_fract_z
   _atom_site_adp_type
   _atom_site_B_iso_or_equiv
   _atom_site_type_symbol
   H1         1.0     0.079274      0.811602      0.217012     Biso  1.000000 H
   H2         1.0     0.920726      0.188398      0.782988     Biso  1.000000 H
   H3         1.0     0.920726      0.688398      0.717012     Biso  1.000000 H
   H4         1.0     0.079274      0.311602      0.282988     Biso  1.000000 H
   H5         1.0     0.920726      0.311602      0.282988     Biso  1.000000 H
   H6         1.0     0.079274      0.688398      0.717012     Biso  1.000000 H
   H7         1.0     0.079274      0.188398      0.782988     Biso  1.000000 H
   H8         1.0     0.920726      0.811602      0.217012     Biso  1.000000 H
   H9         1.0     0.579274      0.311602      0.217012     Biso  1.000000 H
   H10        1.0     0.420726      0.688398      0.782988     Biso  1.000000 H
   H11        1.0     0.420726      0.188398      0.717012     Biso  1.000000 H
   H12        1.0     0.579274      0.811602      0.282988     Biso  1.000000 H
   H13        1.0     0.420726      0.811602      0.282988     Biso  1.000000 H
   H14        1.0     0.579274      0.188398      0.717012     Biso  1.000000 H
   H15        1.0     0.579274      0.688398      0.782988     Biso  1.000000 H
   H16        1.0     0.420726      0.311602      0.217012     Biso  1.000000 H
   H17        1.0     0.811925      0.585520      0.926454     Biso  1.000000 H
   H18        1.0     0.188075      0.414480      0.073546     Biso  1.000000 H
   H19        1.0     0.188075      0.914480      0.426454     Biso  1.000000 H
   H20        1.0     0.811925      0.085520      0.573546     Biso  1.000000 H
   H21        1.0     0.188075      0.085520      0.573546     Biso  1.000000 H
   H22        1.0     0.811925      0.914480      0.426454     Biso  1.000000 H
   H23        1.0     0.811925      0.414480      0.073546     Biso  1.000000 H
   H24        1.0     0.188075      0.585520      0.926454     Biso  1.000000 H
   H25        1.0     0.311925      0.085520      0.926454     Biso  1.000000 H
   H26        1.0     0.688075      0.914480      0.073546     Biso  1.000000 H
   H27        1.0     0.688075      0.414480      0.426454     Biso  1.000000 H
   H28        1.0     0.311925      0.585520      0.573546     Biso  1.000000 H
   H29        1.0     0.688075      0.585520      0.573546     Biso  1.000000 H
   H30        1.0     0.311925      0.414480      0.426454     Biso  1.000000 H
   H31        1.0     0.311925      0.914480      0.073546     Biso  1.000000 H
   H32        1.0     0.688075      0.085520      0.926454     Biso  1.000000 H
   H33        1.0     0.700006      0.574039      0.085617     Biso  1.000000 H
   H34        1.0     0.299994      0.425961      0.914383     Biso  1.000000 H
   H35        1.0     0.299994      0.925961      0.585617     Biso  1.000000 H
   H36        1.0     0.700006      0.074039      0.414383     Biso  1.000000 H
   H37        1.0     0.299994      0.074039      0.414383     Biso  1.000000 H
   H38        1.0     0.700006      0.925961      0.585617     Biso  1.000000 H
   H39        1.0     0.700006      0.425961      0.914383     Biso  1.000000 H
   H40        1.0     0.299994      0.574039      0.085617     Biso  1.000000 H
   H41        1.0     0.200006      0.074039      0.085617     Biso  1.000000 H
   H42        1.0     0.799994      0.925961      0.914383     Biso  1.000000 H
   H43        1.0     0.799994      0.425961      0.585617     Biso  1.000000 H
   H44        1.0     0.200006      0.574039      0.414383     Biso  1.000000 H
   H45        1.0     0.799994      0.574039      0.414383     Biso  1.000000 H
   H46        1.0     0.200006      0.425961      0.585617     Biso  1.000000 H
   H47        1.0     0.200006      0.925961      0.914383     Biso  1.000000 H
   H48        1.0     0.799994      0.074039      0.085617     Biso  1.000000 H
   H49        1.0     0.000000      0.618148      0.184138     Biso  1.000000 H
   H50        1.0     0.000000      0.381852      0.815862     Biso  1.000000 H
   H51        1.0     0.000000      0.881852      0.684138     Biso  1.000000 H
   H52        1.0     0.000000      0.118148      0.315862     Biso  1.000000 H
   H53        1.0     0.500000      0.118148      0.184138     Biso  1.000000 H
   H54        1.0     0.500000      0.881852      0.815862     Biso  1.000000 H
   H55        1.0     0.500000      0.381852      0.684138     Biso  1.000000 H
   H56        1.0     0.500000      0.618148      0.315862     Biso  1.000000 H
   H57        1.0     0.000000      0.278833      0.475024     Biso  1.000000 H
   H58        1.0     0.000000      0.721167     -0.475024     Biso  1.000000 H
   H59        1.0     0.000000      0.221167     -0.024976     Biso  1.000000 H
   H60        1.0     0.000000     -0.221167      0.024976     Biso  1.000000 H
   H61        1.0     0.500000     -0.221167      0.475024     Biso  1.000000 H
   H62        1.0     0.500000      0.221167     -0.475024     Biso  1.000000 H
   H63        1.0     0.500000      0.721167     -0.024976     Biso  1.000000 H
   H64        1.0     0.500000      0.278833      0.024976     Biso  1.000000 H
   C1         1.0     0.000000      0.254847     -0.661311     Biso  1.000000 C
   C2         1.0     0.000000      0.745153      0.661311     Biso  1.000000 C
   C3         1.0     0.000000      0.245153     -0.161311     Biso  1.000000 C
   C4         1.0     0.000000     -0.245153      0.161311     Biso  1.000000 C
   C5         1.0     0.500000     -0.245153     -0.661311     Biso  1.000000 C
   C6         1.0     0.500000      0.245153      0.661311     Biso  1.000000 C
   C7         1.0     0.500000      0.745153     -0.161311     Biso  1.000000 C
   C8         1.0     0.500000      0.254847      0.161311     Biso  1.000000 C
   C9         1.0     0.755806      0.500000     -0.000000     Biso  1.000000 C
   C10        1.0     0.244194      0.500000     -0.000000     Biso  1.000000 C
   C11        1.0     0.244194     -0.000000      0.500000     Biso  1.000000 C
   C12        1.0     0.755806     -0.000000      0.500000     Biso  1.000000 C
   C13        1.0     0.255806     -0.000000     -0.000000     Biso  1.000000 C
   C14        1.0     0.744194     -0.000000     -0.000000     Biso  1.000000 C
   C15        1.0     0.744194      0.500000      0.500000     Biso  1.000000 C
   C16        1.0     0.255806      0.500000      0.500000     Biso  1.000000 C
