#======================================================================

# CRYSTAL DATA

#----------------------------------------------------------------------

data_VESTA_phase_1


_chemical_name_common                  'methane-high                          '
_cell_length_a                         11.93752
_cell_length_b                         8.34991
_cell_length_c                         8.34472
_cell_angle_alpha                      90
_cell_angle_beta                       90
_cell_angle_gamma                      90
_space_group_name_H-M_alt              'P 1'
_space_group_IT_number                 1

loop_
_space_group_symop_operation_xyz
   'x, y, z'

loop_
   _atom_site_label
   _atom_site_occupancy
   _atom_site_fract_x
   _atom_site_fract_y
   _atom_site_fract_z
   _atom_site_adp_type
   _atom_site_B_iso_or_equiv
   _atom_site_type_symbol
   H1         1.0     0.803065      0.582287      0.932077     Biso  1.000000 H
   H2         1.0     0.196935      0.417713      0.067923     Biso  1.000000 H
   H3         1.0     0.196935      0.917713      0.432077     Biso  1.000000 H
   H4         1.0     0.803065      0.082287      0.567923     Biso  1.000000 H
   H5         1.0     0.196935      0.082287      0.567923     Biso  1.000000 H
   H6         1.0     0.803065      0.917713      0.432077     Biso  1.000000 H
   H7         1.0     0.803065      0.417713      0.067923     Biso  1.000000 H
   H8         1.0     0.196935      0.582287      0.932077     Biso  1.000000 H
   H9         1.0     0.303065      0.082287      0.932077     Biso  1.000000 H
   H10        1.0     0.696935      0.917713      0.067923     Biso  1.000000 H
   H11        1.0     0.696935      0.417713      0.432077     Biso  1.000000 H
   H12        1.0     0.303065      0.582287      0.567923     Biso  1.000000 H
   H13        1.0     0.696935      0.582287      0.567923     Biso  1.000000 H
   H14        1.0     0.303065      0.417713      0.432077     Biso  1.000000 H
   H15        1.0     0.303065      0.917713      0.067923     Biso  1.000000 H
   H16        1.0     0.696935      0.082287      0.932077     Biso  1.000000 H
   H17        1.0     0.696487      0.568873      0.082013     Biso  1.000000 H
   H18        1.0     0.303513      0.431127      0.917987     Biso  1.000000 H
   H19        1.0     0.303513      0.931127      0.582013     Biso  1.000000 H
   H20        1.0     0.696487      0.068873      0.417987     Biso  1.000000 H
   H21        1.0     0.303513      0.068873      0.417987     Biso  1.000000 H
   H22        1.0     0.696487      0.931127      0.582013     Biso  1.000000 H
   H23        1.0     0.696487      0.431127      0.917987     Biso  1.000000 H
   H24        1.0     0.303513      0.568873      0.082013     Biso  1.000000 H
   H25        1.0     0.196487      0.068873      0.082013     Biso  1.000000 H
   H26        1.0     0.803513      0.931127      0.917987     Biso  1.000000 H
   H27        1.0     0.803513      0.431127      0.582013     Biso  1.000000 H
   H28        1.0     0.196487      0.568873      0.417987     Biso  1.000000 H
   H29        1.0     0.803513      0.568873      0.417987     Biso  1.000000 H
   H30        1.0     0.196487      0.431127      0.582013     Biso  1.000000 H
   H31        1.0     0.196487      0.931127      0.917987     Biso  1.000000 H
   H32        1.0     0.803513      0.068873      0.082013     Biso  1.000000 H
   H33        1.0     0.078890      0.791842      0.191573     Biso  1.000000 H
   H34        1.0     0.921110      0.208158      0.808427     Biso  1.000000 H
   H35        1.0     0.921110      0.708158      0.691573     Biso  1.000000 H
   H36        1.0     0.078890      0.291842      0.308427     Biso  1.000000 H
   H37        1.0     0.921110      0.291842      0.308427     Biso  1.000000 H
   H38        1.0     0.078890      0.708158      0.691573     Biso  1.000000 H
   H39        1.0     0.078890      0.208158      0.808427     Biso  1.000000 H
   H40        1.0     0.921110      0.791842      0.191573     Biso  1.000000 H
   H41        1.0     0.578890      0.291842      0.191573     Biso  1.000000 H
   H42        1.0     0.421110      0.708158      0.808427     Biso  1.000000 H
   H43        1.0     0.421110      0.208158      0.691573     Biso  1.000000 H
   H44        1.0     0.578890      0.791842      0.308427     Biso  1.000000 H
   H45        1.0     0.421110      0.791842      0.308427     Biso  1.000000 H
   H46        1.0     0.578890      0.208158      0.691573     Biso  1.000000 H
   H47        1.0     0.578890      0.708158      0.808427     Biso  1.000000 H
   H48        1.0     0.421110      0.291842      0.191573     Biso  1.000000 H
   H49        1.0    -0.000000      0.597742      0.210152     Biso  1.000000 H
   H50        1.0    -0.000000      0.402258      0.789848     Biso  1.000000 H
   H51        1.0    -0.000000      0.902258      0.710152     Biso  1.000000 H
   H52        1.0    -0.000000      0.097742      0.289848     Biso  1.000000 H
   H53        1.0     0.500000      0.097742      0.210152     Biso  1.000000 H
   H54        1.0     0.500000      0.902258      0.789848     Biso  1.000000 H
   H55        1.0     0.500000      0.402258      0.710152     Biso  1.000000 H
   H56        1.0     0.500000      0.597742      0.289848     Biso  1.000000 H
   C1         1.0    -0.000000      0.727447      0.199351     Biso  1.000000 C
   C2         1.0    -0.000000      0.272553      0.800649     Biso  1.000000 C
   C3         1.0    -0.000000      0.772553      0.699351     Biso  1.000000 C
   C4         1.0    -0.000000      0.227447      0.300649     Biso  1.000000 C
   C5         1.0     0.500000      0.227447      0.199351     Biso  1.000000 C
   C6         1.0     0.500000      0.772553      0.800649     Biso  1.000000 C
   C7         1.0     0.500000      0.272553      0.699351     Biso  1.000000 C
   C8         1.0     0.500000      0.727447      0.300649     Biso  1.000000 C
   C9         1.0     0.749553      0.500000     -0.000000     Biso  1.000000 C
   C10        1.0     0.250447      0.500000     -0.000000     Biso  1.000000 C
   C11        1.0     0.250447      0.000000      0.500000     Biso  1.000000 C
   C12        1.0     0.749553      0.000000      0.500000     Biso  1.000000 C
   C13        1.0     0.249553      0.000000     -0.000000     Biso  1.000000 C
   C14        1.0     0.750447      0.000000     -0.000000     Biso  1.000000 C
   C15        1.0     0.750447      0.500000      0.500000     Biso  1.000000 C
   C16        1.0     0.249553      0.500000      0.500000     Biso  1.000000 C
