#======================================================================

# CRYSTAL DATA

#----------------------------------------------------------------------

data_VESTA_phase_1


_chemical_name_common                  'methane-high                          '
_cell_length_a                         11.86197
_cell_length_b                         8.29707
_cell_length_c                         8.29190
_cell_angle_alpha                      90
_cell_angle_beta                       90
_cell_angle_gamma                      90
_space_group_name_H-M_alt              'P 1'
_space_group_IT_number                 1

loop_
_space_group_symop_operation_xyz
   'x, y, z'

loop_
   _atom_site_label
   _atom_site_occupancy
   _atom_site_fract_x
   _atom_site_fract_y
   _atom_site_fract_z
   _atom_site_adp_type
   _atom_site_B_iso_or_equiv
   _atom_site_type_symbol
   H1         1.0     0.803414      0.582859      0.931651     Biso  1.000000 H
   H2         1.0     0.196586      0.417141      0.068349     Biso  1.000000 H
   H3         1.0     0.196586      0.917141      0.431651     Biso  1.000000 H
   H4         1.0     0.803414      0.082859      0.568349     Biso  1.000000 H
   H5         1.0     0.196586      0.082859      0.568349     Biso  1.000000 H
   H6         1.0     0.803414      0.917141      0.431651     Biso  1.000000 H
   H7         1.0     0.803414      0.417141      0.068349     Biso  1.000000 H
   H8         1.0     0.196586      0.582859      0.931651     Biso  1.000000 H
   H9         1.0     0.303414      0.082859      0.931651     Biso  1.000000 H
   H10        1.0     0.696586      0.917141      0.068349     Biso  1.000000 H
   H11        1.0     0.696586      0.417141      0.431651     Biso  1.000000 H
   H12        1.0     0.303414      0.582859      0.568349     Biso  1.000000 H
   H13        1.0     0.696586      0.582859      0.568349     Biso  1.000000 H
   H14        1.0     0.303414      0.417141      0.431651     Biso  1.000000 H
   H15        1.0     0.303414      0.917141      0.068349     Biso  1.000000 H
   H16        1.0     0.696586      0.082859      0.931651     Biso  1.000000 H
   H17        1.0     0.696084      0.569348      0.082600     Biso  1.000000 H
   H18        1.0     0.303916      0.430652      0.917400     Biso  1.000000 H
   H19        1.0     0.303916      0.930652      0.582600     Biso  1.000000 H
   H20        1.0     0.696084      0.069348      0.417400     Biso  1.000000 H
   H21        1.0     0.303916      0.069348      0.417400     Biso  1.000000 H
   H22        1.0     0.696084      0.930652      0.582600     Biso  1.000000 H
   H23        1.0     0.696084      0.430652      0.917400     Biso  1.000000 H
   H24        1.0     0.303916      0.569348      0.082600     Biso  1.000000 H
   H25        1.0     0.196084      0.069348      0.082600     Biso  1.000000 H
   H26        1.0     0.803916      0.930652      0.917400     Biso  1.000000 H
   H27        1.0     0.803916      0.430652      0.582600     Biso  1.000000 H
   H28        1.0     0.196084      0.569348      0.417400     Biso  1.000000 H
   H29        1.0     0.803916      0.569348      0.417400     Biso  1.000000 H
   H30        1.0     0.196084      0.430652      0.582600     Biso  1.000000 H
   H31        1.0     0.196084      0.930652      0.917400     Biso  1.000000 H
   H32        1.0     0.803916      0.069348      0.082600     Biso  1.000000 H
   H33        1.0     0.079352      0.792331      0.191481     Biso  1.000000 H
   H34        1.0     0.920648      0.207669      0.808519     Biso  1.000000 H
   H35        1.0     0.920648      0.707669      0.691481     Biso  1.000000 H
   H36        1.0     0.079352      0.292331      0.308519     Biso  1.000000 H
   H37        1.0     0.920648      0.292331      0.308519     Biso  1.000000 H
   H38        1.0     0.079352      0.707669      0.691481     Biso  1.000000 H
   H39        1.0     0.079352      0.207669      0.808519     Biso  1.000000 H
   H40        1.0     0.920648      0.792331      0.191481     Biso  1.000000 H
   H41        1.0     0.579352      0.292331      0.191481     Biso  1.000000 H
   H42        1.0     0.420648      0.707669      0.808519     Biso  1.000000 H
   H43        1.0     0.420648      0.207669      0.691481     Biso  1.000000 H
   H44        1.0     0.579352      0.792331      0.308519     Biso  1.000000 H
   H45        1.0     0.420648      0.792331      0.308519     Biso  1.000000 H
   H46        1.0     0.579352      0.207669      0.691481     Biso  1.000000 H
   H47        1.0     0.579352      0.707669      0.808519     Biso  1.000000 H
   H48        1.0     0.420648      0.292331      0.191481     Biso  1.000000 H
   H49        1.0     0.000000      0.597074      0.210163     Biso  1.000000 H
   H50        1.0     0.000000      0.402926      0.789837     Biso  1.000000 H
   H51        1.0     0.000000      0.902926      0.710163     Biso  1.000000 H
   H52        1.0     0.000000      0.097074      0.289837     Biso  1.000000 H
   H53        1.0     0.500000      0.097074      0.210163     Biso  1.000000 H
   H54        1.0     0.500000      0.902926      0.789837     Biso  1.000000 H
   H55        1.0     0.500000      0.402926      0.710163     Biso  1.000000 H
   H56        1.0     0.500000      0.597074      0.289837     Biso  1.000000 H
   C1         1.0     0.000000      0.727555      0.199170     Biso  1.000000 C
   C2         1.0     0.000000      0.272445      0.800830     Biso  1.000000 C
   C3         1.0     0.000000      0.772445      0.699170     Biso  1.000000 C
   C4         1.0     0.000000      0.227555      0.300830     Biso  1.000000 C
   C5         1.0     0.500000      0.227555      0.199170     Biso  1.000000 C
   C6         1.0     0.500000      0.772445      0.800830     Biso  1.000000 C
   C7         1.0     0.500000      0.272445      0.699170     Biso  1.000000 C
   C8         1.0     0.500000      0.727555      0.300830     Biso  1.000000 C
   C9         1.0     0.749576      0.500000      0.000000     Biso  1.000000 C
   C10        1.0     0.250424      0.500000      0.000000     Biso  1.000000 C
   C11        1.0     0.250424     -0.000000      0.500000     Biso  1.000000 C
   C12        1.0     0.749576     -0.000000      0.500000     Biso  1.000000 C
   C13        1.0     0.249576     -0.000000      0.000000     Biso  1.000000 C
   C14        1.0     0.750424     -0.000000      0.000000     Biso  1.000000 C
   C15        1.0     0.750424      0.500000      0.500000     Biso  1.000000 C
   C16        1.0     0.249576      0.500000      0.500000     Biso  1.000000 C
