#======================================================================

# CRYSTAL DATA

#----------------------------------------------------------------------

data_VESTA_phase_1


_chemical_name_common                  'methane-high                          '
_cell_length_a                         11.78544
_cell_length_b                         8.24354
_cell_length_c                         8.23840
_cell_angle_alpha                      90
_cell_angle_beta                       90
_cell_angle_gamma                      90
_space_group_name_H-M_alt              'P 1'
_space_group_IT_number                 1

loop_
_space_group_symop_operation_xyz
   'x, y, z'

loop_
   _atom_site_label
   _atom_site_occupancy
   _atom_site_fract_x
   _atom_site_fract_y
   _atom_site_fract_z
   _atom_site_adp_type
   _atom_site_B_iso_or_equiv
   _atom_site_type_symbol
   H1         1.0     0.803763      0.583385      0.931251     Biso  1.000000 H
   H2         1.0     0.196237      0.416615      0.068749     Biso  1.000000 H
   H3         1.0     0.196237      0.916615      0.431251     Biso  1.000000 H
   H4         1.0     0.803763      0.083385      0.568749     Biso  1.000000 H
   H5         1.0     0.196237      0.083385      0.568749     Biso  1.000000 H
   H6         1.0     0.803763      0.916615      0.431251     Biso  1.000000 H
   H7         1.0     0.803763      0.416615      0.068749     Biso  1.000000 H
   H8         1.0     0.196237      0.583385      0.931251     Biso  1.000000 H
   H9         1.0     0.303763      0.083385      0.931251     Biso  1.000000 H
   H10        1.0     0.696237      0.916615      0.068749     Biso  1.000000 H
   H11        1.0     0.696237      0.416615      0.431251     Biso  1.000000 H
   H12        1.0     0.303763      0.583385      0.568749     Biso  1.000000 H
   H13        1.0     0.696237      0.583385      0.568749     Biso  1.000000 H
   H14        1.0     0.303763      0.416615      0.431251     Biso  1.000000 H
   H15        1.0     0.303763      0.916615      0.068749     Biso  1.000000 H
   H16        1.0     0.696237      0.083385      0.931251     Biso  1.000000 H
   H17        1.0     0.695733      0.569797      0.083112     Biso  1.000000 H
   H18        1.0     0.304267      0.430204      0.916888     Biso  1.000000 H
   H19        1.0     0.304267      0.930203      0.583112     Biso  1.000000 H
   H20        1.0     0.695733      0.069796      0.416888     Biso  1.000000 H
   H21        1.0     0.304267      0.069796      0.416888     Biso  1.000000 H
   H22        1.0     0.695733      0.930203      0.583112     Biso  1.000000 H
   H23        1.0     0.695733      0.430204      0.916888     Biso  1.000000 H
   H24        1.0     0.304267      0.569797      0.083112     Biso  1.000000 H
   H25        1.0     0.195733      0.069796      0.083112     Biso  1.000000 H
   H26        1.0     0.804267      0.930203      0.916888     Biso  1.000000 H
   H27        1.0     0.804267      0.430204      0.583112     Biso  1.000000 H
   H28        1.0     0.195733      0.569797      0.416888     Biso  1.000000 H
   H29        1.0     0.804267      0.569797      0.416888     Biso  1.000000 H
   H30        1.0     0.195733      0.430204      0.583112     Biso  1.000000 H
   H31        1.0     0.195733      0.930203      0.916888     Biso  1.000000 H
   H32        1.0     0.804267      0.069796      0.083112     Biso  1.000000 H
   H33        1.0     0.079857      0.792748      0.191405     Biso  1.000000 H
   H34        1.0     0.920143      0.207252      0.808595     Biso  1.000000 H
   H35        1.0     0.920143      0.707252      0.691405     Biso  1.000000 H
   H36        1.0     0.079857      0.292748      0.308595     Biso  1.000000 H
   H37        1.0     0.920143      0.292748      0.308595     Biso  1.000000 H
   H38        1.0     0.079857      0.707252      0.691405     Biso  1.000000 H
   H39        1.0     0.079857      0.207252      0.808595     Biso  1.000000 H
   H40        1.0     0.920143      0.792748      0.191405     Biso  1.000000 H
   H41        1.0     0.579857      0.292748      0.191405     Biso  1.000000 H
   H42        1.0     0.420143      0.707252      0.808595     Biso  1.000000 H
   H43        1.0     0.420143      0.207252      0.691405     Biso  1.000000 H
   H44        1.0     0.579857      0.792748      0.308595     Biso  1.000000 H
   H45        1.0     0.420143      0.792748      0.308595     Biso  1.000000 H
   H46        1.0     0.579857      0.207252      0.691405     Biso  1.000000 H
   H47        1.0     0.579857      0.707252      0.808595     Biso  1.000000 H
   H48        1.0     0.420143      0.292748      0.191405     Biso  1.000000 H
   H49        1.0     0.000000      0.596260      0.210206     Biso  1.000000 H
   H50        1.0     0.000000      0.403740      0.789794     Biso  1.000000 H
   H51        1.0     0.000000      0.903740      0.710206     Biso  1.000000 H
   H52        1.0     0.000000      0.096260      0.289794     Biso  1.000000 H
   H53        1.0     0.500000      0.096260      0.210206     Biso  1.000000 H
   H54        1.0     0.500000      0.903740      0.789794     Biso  1.000000 H
   H55        1.0     0.500000      0.403740      0.710206     Biso  1.000000 H
   H56        1.0     0.500000      0.596260      0.289794     Biso  1.000000 H
   C1         1.0     0.000000      0.727570      0.199192     Biso  1.000000 C
   C2         1.0     0.000000      0.272430      0.800808     Biso  1.000000 C
   C3         1.0     0.000000      0.772430      0.699192     Biso  1.000000 C
   C4         1.0     0.000000      0.227570      0.300808     Biso  1.000000 C
   C5         1.0     0.500000      0.227570      0.199192     Biso  1.000000 C
   C6         1.0     0.500000      0.772430      0.800808     Biso  1.000000 C
   C7         1.0     0.500000      0.272430      0.699192     Biso  1.000000 C
   C8         1.0     0.500000      0.727570      0.300808     Biso  1.000000 C
   C9         1.0     0.749567      0.500000     -0.000000     Biso  1.000000 C
   C10        1.0     0.250433      0.500000     -0.000000     Biso  1.000000 C
   C11        1.0     0.250433      0.000000      0.500000     Biso  1.000000 C
   C12        1.0     0.749567      0.000000      0.500000     Biso  1.000000 C
   C13        1.0     0.249567      0.000000     -0.000000     Biso  1.000000 C
   C14        1.0     0.750433      0.000000     -0.000000     Biso  1.000000 C
   C15        1.0     0.750433      0.500000      0.500000     Biso  1.000000 C
   C16        1.0     0.249567      0.500000      0.500000     Biso  1.000000 C
