#======================================================================

# CRYSTAL DATA

#----------------------------------------------------------------------

data_VESTA_phase_1


_chemical_name_common                  'methane-high                          '
_cell_length_a                         11.62932
_cell_length_b                         8.13434
_cell_length_c                         8.12927
_cell_angle_alpha                      90
_cell_angle_beta                       90
_cell_angle_gamma                      90
_space_group_name_H-M_alt              'P 1'
_space_group_IT_number                 1

loop_
_space_group_symop_operation_xyz
   'x, y, z'

loop_
   _atom_site_label
   _atom_site_occupancy
   _atom_site_fract_x
   _atom_site_fract_y
   _atom_site_fract_z
   _atom_site_adp_type
   _atom_site_B_iso_or_equiv
   _atom_site_type_symbol
   H1         1.0     0.804556      0.584522      0.930401     Biso  1.000000 H
   H2         1.0     0.195444      0.415478      0.069599     Biso  1.000000 H
   H3         1.0     0.195444      0.915478      0.430401     Biso  1.000000 H
   H4         1.0     0.804556      0.084522      0.569599     Biso  1.000000 H
   H5         1.0     0.195444      0.084522      0.569599     Biso  1.000000 H
   H6         1.0     0.804556      0.915478      0.430401     Biso  1.000000 H
   H7         1.0     0.804556      0.415478      0.069599     Biso  1.000000 H
   H8         1.0     0.195444      0.584522      0.930401     Biso  1.000000 H
   H9         1.0     0.304556      0.084522      0.930401     Biso  1.000000 H
   H10        1.0     0.695444      0.915478      0.069599     Biso  1.000000 H
   H11        1.0     0.695444      0.415478      0.430401     Biso  1.000000 H
   H12        1.0     0.304556      0.584522      0.569599     Biso  1.000000 H
   H13        1.0     0.695444      0.584522      0.569599     Biso  1.000000 H
   H14        1.0     0.304556      0.415478      0.430401     Biso  1.000000 H
   H15        1.0     0.304556      0.915478      0.069599     Biso  1.000000 H
   H16        1.0     0.695444      0.084522      0.930401     Biso  1.000000 H
   H17        1.0     0.694976      0.570797      0.084184     Biso  1.000000 H
   H18        1.0     0.305024      0.429203      0.915816     Biso  1.000000 H
   H19        1.0     0.305024      0.929203      0.584184     Biso  1.000000 H
   H20        1.0     0.694976      0.070797      0.415816     Biso  1.000000 H
   H21        1.0     0.305024      0.070797      0.415816     Biso  1.000000 H
   H22        1.0     0.694976      0.929203      0.584184     Biso  1.000000 H
   H23        1.0     0.694976      0.429203      0.915816     Biso  1.000000 H
   H24        1.0     0.305024      0.570797      0.084184     Biso  1.000000 H
   H25        1.0     0.194976      0.070797      0.084184     Biso  1.000000 H
   H26        1.0     0.805024      0.929203      0.915816     Biso  1.000000 H
   H27        1.0     0.805024      0.429203      0.584184     Biso  1.000000 H
   H28        1.0     0.194976      0.570797      0.415816     Biso  1.000000 H
   H29        1.0     0.805024      0.570797      0.415816     Biso  1.000000 H
   H30        1.0     0.194976      0.429203      0.584184     Biso  1.000000 H
   H31        1.0     0.194976      0.929203      0.915816     Biso  1.000000 H
   H32        1.0     0.805024      0.070797      0.084184     Biso  1.000000 H
   H33        1.0     0.080950      0.793571      0.191325     Biso  1.000000 H
   H34        1.0     0.919050      0.206429      0.808675     Biso  1.000000 H
   H35        1.0     0.919050      0.706429      0.691325     Biso  1.000000 H
   H36        1.0     0.080950      0.293571      0.308675     Biso  1.000000 H
   H37        1.0     0.919050      0.293571      0.308675     Biso  1.000000 H
   H38        1.0     0.080950      0.706429      0.691325     Biso  1.000000 H
   H39        1.0     0.080950      0.206429      0.808675     Biso  1.000000 H
   H40        1.0     0.919050      0.793571      0.191325     Biso  1.000000 H
   H41        1.0     0.580950      0.293571      0.191325     Biso  1.000000 H
   H42        1.0     0.419050      0.706429      0.808675     Biso  1.000000 H
   H43        1.0     0.419050      0.206429      0.691325     Biso  1.000000 H
   H44        1.0     0.580950      0.793571      0.308675     Biso  1.000000 H
   H45        1.0     0.419050      0.793571      0.308675     Biso  1.000000 H
   H46        1.0     0.580950      0.206429      0.691325     Biso  1.000000 H
   H47        1.0     0.580950      0.706429      0.808675     Biso  1.000000 H
   H48        1.0     0.419050      0.293571      0.191325     Biso  1.000000 H
   H49        1.0     0.000000      0.594472      0.210384     Biso  1.000000 H
   H50        1.0     0.000000      0.405528      0.789616     Biso  1.000000 H
   H51        1.0     0.000000      0.905528      0.710384     Biso  1.000000 H
   H52        1.0     0.000000      0.094472      0.289616     Biso  1.000000 H
   H53        1.0     0.500000      0.094472      0.210384     Biso  1.000000 H
   H54        1.0     0.500000      0.905528      0.789616     Biso  1.000000 H
   H55        1.0     0.500000      0.405528      0.710384     Biso  1.000000 H
   H56        1.0     0.500000      0.594472      0.289616     Biso  1.000000 H
   C1         1.0     0.000000      0.727534      0.199164     Biso  1.000000 C
   C2         1.0     0.000000      0.272466      0.800836     Biso  1.000000 C
   C3         1.0     0.000000      0.772466      0.699164     Biso  1.000000 C
   C4         1.0     0.000000      0.227534      0.300836     Biso  1.000000 C
   C5         1.0     0.500000      0.227534      0.199164     Biso  1.000000 C
   C6         1.0     0.500000      0.772466      0.800836     Biso  1.000000 C
   C7         1.0     0.500000      0.272466      0.699164     Biso  1.000000 C
   C8         1.0     0.500000      0.727534      0.300836     Biso  1.000000 C
   C9         1.0     0.749509      0.500000      0.000000     Biso  1.000000 C
   C10        1.0     0.250491      0.500000      0.000000     Biso  1.000000 C
   C11        1.0     0.250491     -0.000000      0.500000     Biso  1.000000 C
   C12        1.0     0.749509     -0.000000      0.500000     Biso  1.000000 C
   C13        1.0     0.249509     -0.000000      0.000000     Biso  1.000000 C
   C14        1.0     0.750491     -0.000000      0.000000     Biso  1.000000 C
   C15        1.0     0.750491      0.500000      0.500000     Biso  1.000000 C
   C16        1.0     0.249509      0.500000      0.500000     Biso  1.000000 C
