#======================================================================

# CRYSTAL DATA

#----------------------------------------------------------------------

data_VESTA_phase_1


_chemical_name_common                  'methane-high                          '
_cell_length_a                         11.54967
_cell_length_b                         8.07862
_cell_length_c                         8.07359
_cell_angle_alpha                      90
_cell_angle_beta                       90
_cell_angle_gamma                      90
_space_group_name_H-M_alt              'P 1'
_space_group_IT_number                 1

loop_
_space_group_symop_operation_xyz
   'x, y, z'

loop_
   _atom_site_label
   _atom_site_occupancy
   _atom_site_fract_x
   _atom_site_fract_y
   _atom_site_fract_z
   _atom_site_adp_type
   _atom_site_B_iso_or_equiv
   _atom_site_type_symbol
   H1         1.0     0.804878      0.585046      0.929945     Biso  1.000000 H
   H2         1.0     0.195122      0.414954      0.070055     Biso  1.000000 H
   H3         1.0     0.195122      0.914954      0.429945     Biso  1.000000 H
   H4         1.0     0.804878      0.085046      0.570055     Biso  1.000000 H
   H5         1.0     0.195122      0.085046      0.570055     Biso  1.000000 H
   H6         1.0     0.804878      0.914954      0.429945     Biso  1.000000 H
   H7         1.0     0.804878      0.414954      0.070055     Biso  1.000000 H
   H8         1.0     0.195122      0.585046      0.929945     Biso  1.000000 H
   H9         1.0     0.304878      0.085046      0.929945     Biso  1.000000 H
   H10        1.0     0.695122      0.914954      0.070055     Biso  1.000000 H
   H11        1.0     0.695122      0.414954      0.429945     Biso  1.000000 H
   H12        1.0     0.304878      0.585046      0.570055     Biso  1.000000 H
   H13        1.0     0.695122      0.585046      0.570055     Biso  1.000000 H
   H14        1.0     0.304878      0.414954      0.429945     Biso  1.000000 H
   H15        1.0     0.304878      0.914954      0.070055     Biso  1.000000 H
   H16        1.0     0.695122      0.085046      0.929945     Biso  1.000000 H
   H17        1.0     0.694619      0.571241      0.084740     Biso  1.000000 H
   H18        1.0     0.305381      0.428759      0.915260     Biso  1.000000 H
   H19        1.0     0.305381      0.928759      0.584740     Biso  1.000000 H
   H20        1.0     0.694619      0.071241      0.415260     Biso  1.000000 H
   H21        1.0     0.305381      0.071241      0.415260     Biso  1.000000 H
   H22        1.0     0.694619      0.928759      0.584740     Biso  1.000000 H
   H23        1.0     0.694619      0.428759      0.915260     Biso  1.000000 H
   H24        1.0     0.305381      0.571241      0.084740     Biso  1.000000 H
   H25        1.0     0.194619      0.071241      0.084740     Biso  1.000000 H
   H26        1.0     0.805381      0.928759      0.915260     Biso  1.000000 H
   H27        1.0     0.805381      0.428759      0.584740     Biso  1.000000 H
   H28        1.0     0.194619      0.571241      0.415260     Biso  1.000000 H
   H29        1.0     0.805381      0.571241      0.415260     Biso  1.000000 H
   H30        1.0     0.194619      0.428759      0.584740     Biso  1.000000 H
   H31        1.0     0.194619      0.928759      0.915260     Biso  1.000000 H
   H32        1.0     0.805381      0.071241      0.084740     Biso  1.000000 H
   H33        1.0     0.081528      0.794102      0.191148     Biso  1.000000 H
   H34        1.0     0.918472      0.205898      0.808852     Biso  1.000000 H
   H35        1.0     0.918472      0.705898      0.691148     Biso  1.000000 H
   H36        1.0     0.081528      0.294102      0.308852     Biso  1.000000 H
   H37        1.0     0.918472      0.294102      0.308852     Biso  1.000000 H
   H38        1.0     0.081528      0.705898      0.691148     Biso  1.000000 H
   H39        1.0     0.081528      0.205898      0.808852     Biso  1.000000 H
   H40        1.0     0.918472      0.794102      0.191148     Biso  1.000000 H
   H41        1.0     0.581528      0.294102      0.191148     Biso  1.000000 H
   H42        1.0     0.418472      0.705898      0.808852     Biso  1.000000 H
   H43        1.0     0.418472      0.205898      0.691148     Biso  1.000000 H
   H44        1.0     0.581528      0.794102      0.308852     Biso  1.000000 H
   H45        1.0     0.418472      0.794102      0.308852     Biso  1.000000 H
   H46        1.0     0.581528      0.205898      0.691148     Biso  1.000000 H
   H47        1.0     0.581528      0.705898      0.808852     Biso  1.000000 H
   H48        1.0     0.418472      0.294102      0.191148     Biso  1.000000 H
   H49        1.0    -0.000000      0.593500      0.210351     Biso  1.000000 H
   H50        1.0    -0.000000      0.406500      0.789649     Biso  1.000000 H
   H51        1.0    -0.000000      0.906500      0.710351     Biso  1.000000 H
   H52        1.0    -0.000000      0.093500      0.289649     Biso  1.000000 H
   H53        1.0     0.500000      0.093500      0.210351     Biso  1.000000 H
   H54        1.0     0.500000      0.906500      0.789649     Biso  1.000000 H
   H55        1.0     0.500000      0.406500      0.710351     Biso  1.000000 H
   H56        1.0     0.500000      0.593500      0.289649     Biso  1.000000 H
   C1         1.0    -0.000000      0.727594      0.199328     Biso  1.000000 C
   C2         1.0    -0.000000      0.272406      0.800672     Biso  1.000000 C
   C3         1.0    -0.000000      0.772406      0.699328     Biso  1.000000 C
   C4         1.0    -0.000000      0.227594      0.300672     Biso  1.000000 C
   C5         1.0     0.500000      0.227594      0.199328     Biso  1.000000 C
   C6         1.0     0.500000      0.772406      0.800672     Biso  1.000000 C
   C7         1.0     0.500000      0.272406      0.699328     Biso  1.000000 C
   C8         1.0     0.500000      0.727594      0.300672     Biso  1.000000 C
   C9         1.0     0.749541      0.500000     -0.000000     Biso  1.000000 C
   C10        1.0     0.250459      0.500000     -0.000000     Biso  1.000000 C
   C11        1.0     0.250459     -0.000000      0.500000     Biso  1.000000 C
   C12        1.0     0.749541     -0.000000      0.500000     Biso  1.000000 C
   C13        1.0     0.249541     -0.000000     -0.000000     Biso  1.000000 C
   C14        1.0     0.750459     -0.000000     -0.000000     Biso  1.000000 C
   C15        1.0     0.750459      0.500000      0.500000     Biso  1.000000 C
   C16        1.0     0.249541      0.500000      0.500000     Biso  1.000000 C
