#======================================================================

# CRYSTAL DATA

#----------------------------------------------------------------------

data_VESTA_phase_1


_chemical_name_common                  'methane-high                          '
_cell_length_a                         11.38697
_cell_length_b                         7.96482
_cell_length_c                         7.95986
_cell_angle_alpha                      90
_cell_angle_beta                       90
_cell_angle_gamma                      90
_space_group_name_H-M_alt              'P 1'
_space_group_IT_number                 1

loop_
_space_group_symop_operation_xyz
   'x, y, z'

loop_
   _atom_site_label
   _atom_site_occupancy
   _atom_site_fract_x
   _atom_site_fract_y
   _atom_site_fract_z
   _atom_site_adp_type
   _atom_site_B_iso_or_equiv
   _atom_site_type_symbol
   H1         1.0     0.805618      0.586223      0.929060     Biso  1.000000 H
   H2         1.0     0.194382      0.413777      0.070940     Biso  1.000000 H
   H3         1.0     0.194382      0.913777      0.429060     Biso  1.000000 H
   H4         1.0     0.805618      0.086223      0.570940     Biso  1.000000 H
   H5         1.0     0.194382      0.086223      0.570940     Biso  1.000000 H
   H6         1.0     0.805618      0.913777      0.429060     Biso  1.000000 H
   H7         1.0     0.805618      0.413777      0.070940     Biso  1.000000 H
   H8         1.0     0.194382      0.586223      0.929060     Biso  1.000000 H
   H9         1.0     0.305618      0.086223      0.929060     Biso  1.000000 H
   H10        1.0     0.694382      0.913777      0.070940     Biso  1.000000 H
   H11        1.0     0.694382      0.413777      0.429060     Biso  1.000000 H
   H12        1.0     0.305618      0.586223      0.570940     Biso  1.000000 H
   H13        1.0     0.694382      0.586223      0.570940     Biso  1.000000 H
   H14        1.0     0.305618      0.413777      0.429060     Biso  1.000000 H
   H15        1.0     0.305618      0.913777      0.070940     Biso  1.000000 H
   H16        1.0     0.694382      0.086223      0.929060     Biso  1.000000 H
   H17        1.0     0.693840      0.572186      0.085874     Biso  1.000000 H
   H18        1.0     0.306160      0.427814      0.914126     Biso  1.000000 H
   H19        1.0     0.306160      0.927814      0.585874     Biso  1.000000 H
   H20        1.0     0.693840      0.072186      0.414126     Biso  1.000000 H
   H21        1.0     0.306160      0.072186      0.414126     Biso  1.000000 H
   H22        1.0     0.693840      0.927814      0.585874     Biso  1.000000 H
   H23        1.0     0.693840      0.427814      0.914126     Biso  1.000000 H
   H24        1.0     0.306160      0.572186      0.085874     Biso  1.000000 H
   H25        1.0     0.193840      0.072186      0.085874     Biso  1.000000 H
   H26        1.0     0.806160      0.927814      0.914126     Biso  1.000000 H
   H27        1.0     0.806160      0.427814      0.585874     Biso  1.000000 H
   H28        1.0     0.193840      0.572186      0.414126     Biso  1.000000 H
   H29        1.0     0.806160      0.572186      0.414126     Biso  1.000000 H
   H30        1.0     0.193840      0.427814      0.585874     Biso  1.000000 H
   H31        1.0     0.193840      0.927814      0.914126     Biso  1.000000 H
   H32        1.0     0.806160      0.072186      0.085874     Biso  1.000000 H
   H33        1.0     0.082661      0.795166      0.190865     Biso  1.000000 H
   H34        1.0     0.917339      0.204833      0.809135     Biso  1.000000 H
   H35        1.0     0.917339      0.704834      0.690865     Biso  1.000000 H
   H36        1.0     0.082661      0.295167      0.309135     Biso  1.000000 H
   H37        1.0     0.917339      0.295167      0.309135     Biso  1.000000 H
   H38        1.0     0.082661      0.704834      0.690865     Biso  1.000000 H
   H39        1.0     0.082661      0.204833      0.809135     Biso  1.000000 H
   H40        1.0     0.917339      0.795166      0.190865     Biso  1.000000 H
   H41        1.0     0.582661      0.295167      0.190865     Biso  1.000000 H
   H42        1.0     0.417339      0.704834      0.809135     Biso  1.000000 H
   H43        1.0     0.417339      0.204833      0.690865     Biso  1.000000 H
   H44        1.0     0.582661      0.795166      0.309135     Biso  1.000000 H
   H45        1.0     0.417339      0.795166      0.309135     Biso  1.000000 H
   H46        1.0     0.582661      0.204833      0.690865     Biso  1.000000 H
   H47        1.0     0.582661      0.704834      0.809135     Biso  1.000000 H
   H48        1.0     0.417339      0.295167      0.190865     Biso  1.000000 H
   H49        1.0     0.000000      0.591751      0.210326     Biso  1.000000 H
   H50        1.0     0.000000      0.408249      0.789674     Biso  1.000000 H
   H51        1.0     0.000000      0.908249      0.710326     Biso  1.000000 H
   H52        1.0     0.000000      0.091751      0.289674     Biso  1.000000 H
   H53        1.0     0.500000      0.091751      0.210326     Biso  1.000000 H
   H54        1.0     0.500000      0.908249      0.789674     Biso  1.000000 H
   H55        1.0     0.500000      0.408249      0.710326     Biso  1.000000 H
   H56        1.0     0.500000      0.591751      0.289674     Biso  1.000000 H
   C1         1.0     0.000000      0.727720      0.199208     Biso  1.000000 C
   C2         1.0     0.000000      0.272280      0.800792     Biso  1.000000 C
   C3         1.0     0.000000      0.772280      0.699208     Biso  1.000000 C
   C4         1.0     0.000000      0.227720      0.300792     Biso  1.000000 C
   C5         1.0     0.500000      0.227720      0.199208     Biso  1.000000 C
   C6         1.0     0.500000      0.772280      0.800792     Biso  1.000000 C
   C7         1.0     0.500000      0.272280      0.699208     Biso  1.000000 C
   C8         1.0     0.500000      0.727720      0.300792     Biso  1.000000 C
   C9         1.0     0.749482      0.500000     -0.000000     Biso  1.000000 C
   C10        1.0     0.250518      0.500000     -0.000000     Biso  1.000000 C
   C11        1.0     0.250518      0.000000      0.500000     Biso  1.000000 C
   C12        1.0     0.749482      0.000000      0.500000     Biso  1.000000 C
   C13        1.0     0.249482      0.000000     -0.000000     Biso  1.000000 C
   C14        1.0     0.750518      0.000000     -0.000000     Biso  1.000000 C
   C15        1.0     0.750518      0.500000      0.500000     Biso  1.000000 C
   C16        1.0     0.249482      0.500000      0.500000     Biso  1.000000 C
